5275518
 OpenBabel03312015312D

 37 41  0  0  0  0  0  0  0  0999 V2000
    1.2500    1.4000    0.0000 C   0  0  0  0  0  0  0  0  0  0  0  0
    2.1667    1.4958    0.0000 C   0  0  0  0  0  0  0  0  0  0  0  0
    2.5292    0.6625    0.0000 N   0  0  0  0  0  0  0  0  0  0  0  0
   -2.1208   -1.4292    0.0000 C   0  0  0  0  0  0  0  0  0  0  0  0
    1.0375    0.5125    0.0000 C   0  0  0  0  0  0  0  0  0  0  0  0
    1.8500    0.0333    0.0000 C   0  0  0  0  0  0  0  0  0  0  0  0
   -2.1000   -2.3500    0.0000 N   0  3  0  0  0  0  0  0  0  0  0  0
   -1.3333   -0.9292    0.0000 C   0  0  0  0  0  0  0  0  0  0  0  0
   -2.9333   -1.0167    0.0000 C   0  0  0  0  0  0  0  0  0  0  0  0
    0.6375    2.0833    0.0000 C   0  0  0  0  0  0  0  0  0  0  0  0
   -1.3833   -0.0292    0.0000 N   0  0  0  0  0  0  0  0  0  0  0  0
   -0.5333   -1.3792    0.0000 O   0  0  0  0  0  0  0  0  0  0  0  0
    1.8500   -0.8542    0.0000 C   0  0  0  0  0  0  0  0  0  0  0  0
   -2.9708   -0.0917    0.0000 N   0  0  0  0  0  0  0  0  0  0  0  0
    0.2542    0.0333    0.0000 C   0  0  0  0  0  0  0  0  0  0  0  0
   -1.2958   -2.7875    0.0000 O   0  5  0  0  0  0  0  0  0  0  0  0
    3.4000    0.5333    0.0000 C   0  0  0  0  0  0  0  0  0  0  0  0
   -2.2125    0.3958    0.0000 C   0  0  0  0  0  0  0  0  0  0  0  0
   -2.8833   -2.8167    0.0000 O   0  0  0  0  0  0  0  0  0  0  0  0
    0.2792   -0.8875    0.0000 C   0  0  0  0  0  0  0  0  0  0  0  0
    0.9292    2.9583    0.0000 O   0  0  0  0  0  0  0  0  0  0  0  0
   -3.6958   -1.5167    0.0000 C   0  0  0  0  0  0  0  0  0  0  0  0
    1.0375   -1.3375    0.0000 C   0  0  0  0  0  0  0  0  0  0  0  0
    2.6375    2.2833    0.0000 C   0  0  0  0  0  0  0  0  0  0  0  0
   -0.2625    1.9000    0.0000 O   0  0  0  0  0  0  0  0  0  0  0  0
    3.9792    1.2500    0.0000 C   0  0  0  0  0  0  0  0  0  0  0  0
    3.7542   -0.3292    0.0000 C   0  0  0  0  0  0  0  0  0  0  0  0
   -3.6208   -2.4375    0.0000 C   0  0  0  0  0  0  0  0  0  0  0  0
   -4.5000   -1.1042    0.0000 C   0  0  0  0  0  0  0  0  0  0  0  0
   -0.8458    2.5958    0.0000 C   0  0  0  0  0  0  0  0  0  0  0  0
   -1.7458    2.4125    0.0000 C   0  0  0  0  0  0  0  0  0  0  0  0
    4.8792    1.1125    0.0000 C   0  0  0  0  0  0  0  0  0  0  0  0
    4.6542   -0.4542    0.0000 C   0  0  0  0  0  0  0  0  0  0  0  0
   -4.4125   -2.9500    0.0000 C   0  0  0  0  0  0  0  0  0  0  0  0
   -5.2708   -1.6000    0.0000 C   0  0  0  0  0  0  0  0  0  0  0  0
   -5.2208   -2.5292    0.0000 C   0  0  0  0  0  0  0  0  0  0  0  0
    5.2375    0.2625    0.0000 C   0  0  0  0  0  0  0  0  0  0  0  0
  2  1  2  0  0  0  0
  3  2  1  0  0  0  0
  3  6  1  0  0  0  0
  4  8  1  0  0  0  0
  5  1  1  0  0  0  0
  6  5  2  0  0  0  0
  7  4  1  0  0  0  0
  8 12  1  0  0  0  0
  9  4  2  0  0  0  0
  9 14  1  0  0  0  0
 10  1  1  0  0  0  0
 11  8  2  0  0  0  0
 12 20  1  0  0  0  0
 13  6  1  0  0  0  0
 14 18  2  0  0  0  0
 15  5  1  0  0  0  0
 16  7  1  0  0  0  0
 17  3  1  0  0  0  0
 18 11  1  0  0  0  0
 19  7  2  0  0  0  0
 20 15  2  0  0  0  0
 21 10  2  0  0  0  0
 22  9  1  0  0  0  0
 23 20  1  0  0  0  0
 23 13  2  0  0  0  0
 24  2  1  0  0  0  0
 25 10  1  0  0  0  0
 26 17  2  0  0  0  0
 27 17  1  0  0  0  0
 28 22  1  0  0  0  0
 29 22  1  0  0  0  0
 30 25  1  0  0  0  0
 31 30  1  0  0  0  0
 32 26  1  0  0  0  0
 32 37  2  0  0  0  0
 33 27  2  0  0  0  0
 34 28  1  0  0  0  0
 34 36  1  0  0  0  0
 35 29  1  0  0  0  0
 36 35  1  0  0  0  0
 37 33  1  0  0  0  0
M  CHG  2   7   1  16  -1
M  END
>  <ID>
5275518

>  <Supplier>
ChemBridge

>  <clogP>
7.790000000000000e+000

>  <RB>
5

>  <tPSA>
1.093800000000000e+002

>  <Hacc>
8

>  <Hdon>
0

>  <LogSw>
-9.891000000000000e+000

>  <Group>
3

$$$$
5275513
 OpenBabel03312015312D

 25 27  0  0  0  0  0  0  0  0999 V2000
    0.7292    3.0000    0.0000 C   0  0  0  0  0  0  0  0  0  0  0  0
   -0.5958    2.9958    0.0000 C   0  0  0  0  0  0  0  0  0  0  0  0
    0.1000    3.3833    0.0000 C   0  0  3  0  0  0  0  0  0  0  0  0
    0.7292    2.2083    0.0000 C   0  0  0  0  0  0  0  0  0  0  0  0
   -0.5958    2.2125    0.0000 C   0  0  0  0  0  0  0  0  0  0  0  0
    0.1000    1.8000    0.0000 O   0  0  0  0  0  0  0  0  0  0  0  0
   -1.2708    3.3958    0.0000 C   0  0  0  0  0  0  0  0  0  0  0  0
    0.1000    4.1667    0.0000 C   0  0  0  0  0  0  0  0  0  0  0  0
    0.1000    5.7292    0.0000 C   0  0  0  0  0  0  0  0  0  0  0  0
    1.4375    3.4000    0.0000 C   0  0  0  0  0  0  0  0  0  0  0  0
   -0.5958    5.3375    0.0000 C   0  0  0  0  0  0  0  0  0  0  0  0
    0.7500    5.3375    0.0000 C   0  0  0  0  0  0  0  0  0  0  0  0
   -0.5958    4.5542    0.0000 C   0  0  0  0  0  0  0  0  0  0  0  0
    0.7500    4.5542    0.0000 C   0  0  0  0  0  0  0  0  0  0  0  0
    2.1292    3.8208    0.0000 N   0  0  0  0  0  0  0  0  0  0  0  0
   -1.2708    1.8125    0.0000 C   0  0  0  0  0  0  0  0  0  0  0  0
   -1.9500    2.9958    0.0000 C   0  0  0  0  0  0  0  0  0  0  0  0
   -1.2708    4.1667    0.0000 O   0  0  0  0  0  0  0  0  0  0  0  0
    1.4375    1.7833    0.0000 N   0  0  0  0  0  0  0  0  0  0  0  0
   -1.9500    2.2083    0.0000 C   0  0  3  0  0  0  0  0  0  0  0  0
   -1.2833    5.7167    0.0000 Br  0  0  0  0  0  0  0  0  0  0  0  0
    0.1042    6.5167    0.0000 O   0  0  0  0  0  0  0  0  0  0  0  0
    1.4292    5.7292    0.0000 O   0  0  0  0  0  0  0  0  0  0  0  0
   -2.6333    1.8000    0.0000 C   0  0  0  0  0  0  0  0  0  0  0  0
    2.1042    5.3375    0.0000 C   0  0  0  0  0  0  0  0  0  0  0  0
  2  3  1  0  0  0  0
  3  1  1  0  0  0  0
  4  1  2  0  0  0  0
  5  6  1  0  0  0  0
  5  2  2  0  0  0  0
  6  4  1  0  0  0  0
  7  2  1  0  0  0  0
  8  3  1  0  0  0  0
  9 12  2  0  0  0  0
 10  1  1  0  0  0  0
 11 13  2  0  0  0  0
 11  9  1  0  0  0  0
 12 14  1  0  0  0  0
 13  8  1  0  0  0  0
 14  8  2  0  0  0  0
 15 10  3  0  0  0  0
 16  5  1  0  0  0  0
 17  7  1  0  0  0  0
 18  7  2  0  0  0  0
 19  4  1  0  0  0  0
 20 16  1  0  0  0  0
 20 17  1  0  0  0  0
 21 11  1  0  0  0  0
 22  9  1  0  0  0  0
 23 12  1  0  0  0  0
 24 20  1  0  0  0  0
 25 23  1  0  0  0  0
M  END
>  <ID>
5275513

>  <Supplier>
ChemBridge

>  <clogP>
1.080000000000000e+000

>  <RB>
1

>  <tPSA>
1.055700000000000e+002

>  <Hacc>
5

>  <Hdon>
2

>  <LogSw>
-2.334000000000000e+000

>  <Group>
1

>  <Core>
091

$$$$
9082136
 OpenBabel03312015312D

 24 27  0  0  0  0  0  0  0  0999 V2000
    3.2917    2.6583    0.0000 C   0  0  0  0  0  0  0  0  0  0  0  0
    3.9417    2.2833    0.0000 N   0  0  0  0  0  0  0  0  0  0  0  0
    5.2417    1.5333    0.0000 N   0  0  0  0  0  0  0  0  0  0  0  0
    2.6417    2.2833    0.0000 C   0  0  0  0  0  0  0  0  0  0  0  0
    1.3417    2.2833    0.0000 C   0  0  0  0  0  0  0  0  0  0  0  0
    5.8917    1.1583    0.0000 C   0  0  0  0  0  0  0  0  0  0  0  0
    1.9917    2.6583    0.0000 C   0  0  0  0  0  0  0  0  0  0  0  0
    1.3417    1.5333    0.0000 C   0  0  0  0  0  0  0  0  0  0  0  0
    0.6292    2.5208    0.0000 O   0  0  0  0  0  0  0  0  0  0  0  0
    0.6292    1.2958    0.0000 O   0  0  0  0  0  0  0  0  0  0  0  0
    4.5917    2.6583    0.0000 C   0  0  0  0  0  0  0  0  0  0  0  0
    3.9417    1.5333    0.0000 C   0  0  0  0  0  0  0  0  0  0  0  0
    4.5917    1.1583    0.0000 C   0  0  0  0  0  0  0  0  0  0  0  0
    5.2417    2.2833    0.0000 C   0  0  0  0  0  0  0  0  0  0  0  0
    0.1917    1.9083    0.0000 C   0  0  0  0  0  0  0  0  0  0  0  0
    3.2917    3.4083    0.0000 O   0  0  0  0  0  0  0  0  0  0  0  0
    2.6417    1.5333    0.0000 C   0  0  0  0  0  0  0  0  0  0  0  0
    5.8917    0.4083    0.0000 C   0  0  0  0  0  0  0  0  0  0  0  0
    1.9917    1.1583    0.0000 C   0  0  0  0  0  0  0  0  0  0  0  0
    6.5417    1.5333    0.0000 C   0  0  0  0  0  0  0  0  0  0  0  0
    5.2417    0.0333    0.0000 C   0  0  0  0  0  0  0  0  0  0  0  0
    6.5417    0.0333    0.0000 C   0  0  0  0  0  0  0  0  0  0  0  0
    7.1917    1.1583    0.0000 C   0  0  0  0  0  0  0  0  0  0  0  0
    7.1917    0.4083    0.0000 C   0  0  0  0  0  0  0  0  0  0  0  0
  2  1  1  0  0  0  0
  3 13  1  0  0  0  0
  3 14  1  0  0  0  0
  4  1  1  0  0  0  0
  5  7  1  0  0  0  0
  5  8  2  0  0  0  0
  6  3  1  0  0  0  0
  7  4  2  0  0  0  0
  8 19  1  0  0  0  0
  9  5  1  0  0  0  0
 10  8  1  0  0  0  0
 10 15  1  0  0  0  0
 11  2  1  0  0  0  0
 12  2  1  0  0  0  0
 13 12  1  0  0  0  0
 14 11  1  0  0  0  0
 15  9  1  0  0  0  0
 16  1  2  0  0  0  0
 17  4  1  0  0  0  0
 18  6  1  0  0  0  0
 19 17  2  0  0  0  0
 20  6  2  0  0  0  0
 21 18  1  0  0  0  0
 22 18  2  0  0  0  0
 22 24  1  0  0  0  0
 23 20  1  0  0  0  0
 24 23  2  0  0  0  0
M  END
>  <ID>
9082136

>  <Supplier>
ChemBridge

>  <clogP>
2.250000000000000e+000

>  <RB>
2

>  <tPSA>
4.201000000000001e+001

>  <Hacc>
3

>  <Hdon>
0

>  <LogSw>
-3.487000000000000e+000

>  <Group>
2

>  <Core>
158

$$$$
5333268
 OpenBabel03312015312D

 26 27  0  0  0  0  0  0  0  0999 V2000
   -1.2625   -2.9292    0.0000 N   0  3  0  0  0  0  0  0  0  0  0  0
    0.6667   -1.8042    0.0000 C   0  0  0  0  0  0  0  0  0  0  0  0
    1.3167   -1.4292    0.0000 C   0  0  0  0  0  0  0  0  0  0  0  0
    0.0167   -1.4292    0.0000 C   0  0  0  0  0  0  0  0  0  0  0  0
   -0.6125   -2.5542    0.0000 C   0  0  0  0  0  0  0  0  0  0  0  0
   -0.6125   -1.8042    0.0000 C   0  0  0  0  0  0  0  0  0  0  0  0
    3.2667   -1.8042    0.0000 C   0  0  0  0  0  0  0  0  0  0  0  0
    1.9667   -1.8042    0.0000 N   0  0  0  0  0  0  0  0  0  0  0  0
    2.6167   -1.4292    0.0000 N   0  0  0  0  0  0  0  0  0  0  0  0
    0.6667   -2.5542    0.0000 C   0  0  0  0  0  0  0  0  0  0  0  0
   -1.9125   -2.5542    0.0000 O   0  5  0  0  0  0  0  0  0  0  0  0
   -1.2625   -3.6792    0.0000 O   0  0  0  0  0  0  0  0  0  0  0  0
    3.9167   -1.4292    0.0000 C   0  0  0  0  0  0  0  0  0  0  0  0
    5.8667   -0.3042    0.0000 C   0  0  0  0  0  0  0  0  0  0  0  0
    5.2167   -0.6792    0.0000 C   0  0  0  0  0  0  0  0  0  0  0  0
    0.0167   -2.9292    0.0000 C   0  0  0  0  0  0  0  0  0  0  0  0
    1.3167   -0.6792    0.0000 O   0  0  0  0  0  0  0  0  0  0  0  0
    3.2667   -2.5542    0.0000 O   0  0  0  0  0  0  0  0  0  0  0  0
    4.5667   -1.8042    0.0000 C   0  0  0  0  0  0  0  0  0  0  0  0
    3.9167   -0.6792    0.0000 C   0  0  0  0  0  0  0  0  0  0  0  0
    4.5667   -0.3042    0.0000 C   0  0  0  0  0  0  0  0  0  0  0  0
    5.2167   -1.4292    0.0000 C   0  0  0  0  0  0  0  0  0  0  0  0
    0.0167   -0.6792    0.0000 Cl  0  0  0  0  0  0  0  0  0  0  0  0
    5.8667    0.4333    0.0000 C   0  0  0  0  0  0  0  0  0  0  0  0
    6.6167   -0.3042    0.0000 C   0  0  0  0  0  0  0  0  0  0  0  0
    6.5167   -0.6792    0.0000 C   0  0  0  0  0  0  0  0  0  0  0  0
  2 10  2  0  0  0  0
  2  4  1  0  0  0  0
  3  2  1  0  0  0  0
  4  6  2  0  0  0  0
  5  1  1  0  0  0  0
  6  5  1  0  0  0  0
  7  9  1  0  0  0  0
  8  3  1  0  0  0  0
  9  8  1  0  0  0  0
 10 16  1  0  0  0  0
 11  1  1  0  0  0  0
 12  1  2  0  0  0  0
 13  7  1  0  0  0  0
 14 15  1  0  0  0  0
 15 21  2  0  0  0  0
 16  5  2  0  0  0  0
 17  3  2  0  0  0  0
 18  7  2  0  0  0  0
 19 13  1  0  0  0  0
 20 13  2  0  0  0  0
 21 20  1  0  0  0  0
 22 19  2  0  0  0  0
 22 15  1  0  0  0  0
 23  4  1  0  0  0  0
 24 14  1  0  0  0  0
 25 14  1  0  0  0  0
 26 14  1  0  0  0  0
M  CHG  2   1   1  11  -1
M  END
>  <ID>
5333268

>  <Supplier>
ChemBridge

>  <clogP>
5.650000000000000e+000

>  <RB>
4

>  <tPSA>
1.013400000000000e+002

>  <Hacc>
4

>  <Hdon>
2

>  <LogSw>
-7.154999999999998e+000

>  <Group>
1

>  <Core>
442

$$$$
7508287
 OpenBabel03312015312D

 29 31  0  0  0  0  0  0  0  0999 V2000
   -1.5500    1.3333    0.0000 C   0  0  0  0  0  0  0  0  0  0  0  0
   -0.8125    1.7958    0.0000 C   0  0  0  0  0  0  0  0  0  0  0  0
   -1.5500    0.4708    0.0000 C   0  0  0  0  0  0  0  0  0  0  0  0
   -0.8125   -0.8042    0.0000 C   0  0  0  0  0  0  0  0  0  0  0  0
   -0.0958    1.3708    0.0000 N   0  0  0  0  0  0  0  0  0  0  0  0
   -0.8125    0.0500    0.0000 N   0  0  0  0  0  0  0  0  0  0  0  0
    0.6500    1.8125    0.0000 C   0  0  0  0  0  0  0  0  0  0  0  0
    0.6417    2.6750    0.0000 C   0  0  0  0  0  0  0  0  0  0  0  0
   -2.2958    1.7500    0.0000 C   0  0  0  0  0  0  0  0  0  0  0  0
   -0.0958   -1.2292    0.0000 C   0  0  0  0  0  0  0  0  0  0  0  0
   -0.8333    2.6500    0.0000 O   0  0  0  0  0  0  0  0  0  0  0  0
   -1.5500   -1.2292    0.0000 O   0  0  0  0  0  0  0  0  0  0  0  0
    1.4000    3.1333    0.0000 C   0  0  0  0  0  0  0  0  0  0  0  0
   -2.2958    0.0500    0.0000 C   0  0  0  0  0  0  0  0  0  0  0  0
    1.4292    1.3875    0.0000 C   0  0  0  0  0  0  0  0  0  0  0  0
    0.6500   -0.8042    0.0000 C   0  0  0  0  0  0  0  0  0  0  0  0
   -0.0958   -2.0667    0.0000 C   0  0  0  0  0  0  0  0  0  0  0  0
   -3.0333    1.3333    0.0000 C   0  0  0  0  0  0  0  0  0  0  0  0
    2.1542    2.7125    0.0000 C   0  0  0  0  0  0  0  0  0  0  0  0
    1.3875   -2.0667    0.0000 C   0  0  0  0  0  0  0  0  0  0  0  0
   -3.0333    0.4958    0.0000 C   0  0  0  0  0  0  0  0  0  0  0  0
    2.1917    1.8458    0.0000 C   0  0  0  0  0  0  0  0  0  0  0  0
    0.6500   -2.4875    0.0000 C   0  0  0  0  0  0  0  0  0  0  0  0
    1.3875   -1.2292    0.0000 C   0  0  0  0  0  0  0  0  0  0  0  0
   -3.7625    1.7458    0.0000 Cl  0  0  0  0  0  0  0  0  0  0  0  0
    2.1500   -2.4667    0.0000 O   0  0  0  0  0  0  0  0  0  0  0  0
   -0.1250    3.1083    0.0000 C   0  0  0  0  0  0  0  0  0  0  0  0
    2.9125    3.1708    0.0000 C   0  0  0  0  0  0  0  0  0  0  0  0
    2.9000   -2.0667    0.0000 C   0  0  0  0  0  0  0  0  0  0  0  0
  2  1  1  0  0  0  0
  3  1  2  0  0  0  0
  4  6  1  0  0  0  0
  5  2  1  0  0  0  0
  6  3  1  0  0  0  0
  7  5  1  0  0  0  0
  8  7  1  0  0  0  0
  9  1  1  0  0  0  0
 10  4  1  0  0  0  0
 11  2  2  0  0  0  0
 12  4  2  0  0  0  0
 13  8  2  0  0  0  0
 14  3  1  0  0  0  0
 14 21  2  0  0  0  0
 15  7  2  0  0  0  0
 16 10  2  0  0  0  0
 17 10  1  0  0  0  0
 18  9  2  0  0  0  0
 19 22  2  0  0  0  0
 19 13  1  0  0  0  0
 20 23  1  0  0  0  0
 20 24  2  0  0  0  0
 21 18  1  0  0  0  0
 22 15  1  0  0  0  0
 23 17  2  0  0  0  0
 24 16  1  0  0  0  0
 25 18  1  0  0  0  0
 26 20  1  0  0  0  0
 27  8  1  0  0  0  0
 28 19  1  0  0  0  0
 29 26  1  0  0  0  0
M  END
>  <ID>
7508287

>  <Supplier>
ChemBridge

>  <clogP>
5.058000000000000e+000

>  <RB>
4

>  <tPSA>
6.743000000000001e+001

>  <Hacc>
3

>  <Hdon>
2

>  <LogSw>
-6.948000000000000e+000

>  <Group>
3

>  <Core>
141

$$$$
6381087
 OpenBabel03312015312D

 19 21  0  0  0  0  0  0  0  0999 V2000
    4.6042   -4.4125    0.0000 N   0  0  0  0  0  0  0  0  0  0  0  0
    7.4667   -4.4000    0.0000 C   0  0  0  0  0  0  0  0  0  0  0  0
    3.8917   -4.0000    0.0000 C   0  0  0  0  0  0  0  0  0  0  0  0
    6.7500   -3.9917    0.0000 C   0  0  0  0  0  0  0  0  0  0  0  0
    8.2167   -4.0625    0.0000 C   0  0  0  0  0  0  0  0  0  0  0  0
    7.5542   -5.2167    0.0000 S   0  0  0  0  0  0  0  0  0  0  0  0
    6.0375   -4.4042    0.0000 C   0  0  0  0  0  0  0  0  0  0  0  0
    8.3625   -5.3917    0.0000 C   0  0  0  0  0  0  0  0  0  0  0  0
    8.7750   -4.6750    0.0000 C   0  0  0  0  0  0  0  0  0  0  0  0
    5.3167   -3.9917    0.0000 C   0  0  0  0  0  0  0  0  0  0  0  0
    3.1750   -4.4167    0.0000 C   0  0  0  0  0  0  0  0  0  0  0  0
    3.8917   -3.1750    0.0000 C   0  0  0  0  0  0  0  0  0  0  0  0
    4.6000   -2.7542    0.0000 C   0  0  0  0  0  0  0  0  0  0  0  0
    5.3167   -3.1667    0.0000 C   0  0  0  0  0  0  0  0  0  0  0  0
    3.1667   -5.2417    0.0000 O   0  0  0  0  0  0  0  0  0  0  0  0
    8.3875   -3.2542    0.0000 C   0  0  0  0  0  0  0  0  0  0  0  0
    2.4625   -3.1750    0.0000 C   0  0  0  0  0  0  0  0  0  0  0  0
    2.4625   -4.0042    0.0000 C   0  0  0  0  0  0  0  0  0  0  0  0
    3.1750   -2.7625    0.0000 C   0  0  0  0  0  0  0  0  0  0  0  0
  2  4  1  0  0  0  0
  3  1  1  0  0  0  0
  4  7  2  0  0  0  0
  5  2  2  0  0  0  0
  6  2  1  0  0  0  0
  7 10  1  0  0  0  0
  8  6  1  0  0  0  0
  9  5  1  0  0  0  0
  9  8  2  0  0  0  0
 10  1  2  0  0  0  0
 11  3  2  0  0  0  0
 12  3  1  0  0  0  0
 12 13  1  0  0  0  0
 13 14  2  0  0  0  0
 14 10  1  0  0  0  0
 15 11  1  0  0  0  0
 16  5  1  0  0  0  0
 17 19  1  0  0  0  0
 17 18  2  0  0  0  0
 18 11  1  0  0  0  0
 19 12  2  0  0  0  0
M  END
>  <ID>
6381087

>  <Supplier>
ChemBridge

>  <clogP>
4.510000000000000e+000

>  <RB>
2

>  <tPSA>
3.311999999999998e+001

>  <Hacc>
2

>  <Hdon>
1

>  <LogSw>
-4.422000000000000e+000

>  <Group>
3

>  <Core>
275

$$$$
6381084
 OpenBabel03312015312D

 26 28  0  0  0  0  0  0  0  0999 V2000
    6.2250   -4.7875    0.0000 C   0  0  0  0  0  0  0  0  0  0  0  0
    5.6500   -4.3000    0.0000 S   0  0  0  0  0  0  0  0  0  0  0  0
    5.9292   -5.4792    0.0000 N   0  0  0  0  0  0  0  0  0  0  0  0
    5.1875   -5.4167    0.0000 N   0  0  0  0  0  0  0  0  0  0  0  0
    6.9500   -4.6125    0.0000 N   0  0  0  0  0  0  0  0  0  0  0  0
    5.0167   -4.6917    0.0000 C   0  0  0  0  0  0  0  0  0  0  0  0
    7.1625   -3.8917    0.0000 C   0  0  0  0  0  0  0  0  0  0  0  0
    7.9500   -3.6667    0.0000 N   0  0  0  0  0  0  0  0  0  0  0  0
    6.6500   -3.3167    0.0000 O   0  0  0  0  0  0  0  0  0  0  0  0
    8.6792   -3.5167    0.0000 C   0  0  0  0  0  0  0  0  0  0  0  0
    8.9125   -2.8042    0.0000 C   0  0  0  0  0  0  0  0  0  0  0  0
    4.3917   -4.3792    0.0000 C   0  0  0  0  0  0  0  0  0  0  0  0
    4.7250   -3.7125    0.0000 C   0  0  0  0  0  0  0  0  0  0  0  0
    9.6417   -2.6500    0.0000 C   0  0  0  0  0  0  0  0  0  0  0  0
    5.4000   -2.3750    0.0000 C   0  0  0  0  0  0  0  0  0  0  0  0
    4.3125   -3.0875    0.0000 C   0  0  0  0  0  0  0  0  0  0  0  0
    5.4667   -3.6667    0.0000 C   0  0  0  0  0  0  0  0  0  0  0  0
    5.8000   -3.0000    0.0000 C   0  0  0  0  0  0  0  0  0  0  0  0
    4.6542   -2.4167    0.0000 C   0  0  0  0  0  0  0  0  0  0  0  0
    9.8792   -1.9292    0.0000 O   0  0  0  0  0  0  0  0  0  0  0  0
    5.7542   -1.6625    0.0000 O   0  0  0  0  0  0  0  0  0  0  0  0
    9.9167   -3.9167    0.0000 C   0  0  0  0  0  0  0  0  0  0  0  0
    9.1792   -4.0667    0.0000 C   0  0  0  0  0  0  0  0  0  0  0  0
   10.1417   -3.2042    0.0000 C   0  0  0  0  0  0  0  0  0  0  0  0
    6.5542   -1.6167    0.0000 C   0  0  0  0  0  0  0  0  0  0  0  0
    9.3667   -1.3750    0.0000 C   0  0  0  0  0  0  0  0  0  0  0  0
  2  1  1  0  0  0  0
  3  1  2  0  0  0  0
  4  3  1  0  0  0  0
  4  6  2  0  0  0  0
  5  1  1  0  0  0  0
  6  2  1  0  0  0  0
  7  5  1  0  0  0  0
  8  7  1  0  0  0  0
  9  7  2  0  0  0  0
 10  8  1  0  0  0  0
 11 10  2  0  0  0  0
 12  6  1  0  0  0  0
 13 12  1  0  0  0  0
 14 11  1  0  0  0  0
 14 24  2  0  0  0  0
 15 18  1  0  0  0  0
 16 13  2  0  0  0  0
 17 13  1  0  0  0  0
 18 17  2  0  0  0  0
 19 16  1  0  0  0  0
 19 15  2  0  0  0  0
 20 14  1  0  0  0  0
 21 15  1  0  0  0  0
 22 23  2  0  0  0  0
 23 10  1  0  0  0  0
 24 22  1  0  0  0  0
 25 21  1  0  0  0  0
 26 20  1  0  0  0  0
M  END
>  <ID>
6381084

>  <Supplier>
ChemBridge

>  <clogP>
3.430000000000000e+000

>  <RB>
4

>  <tPSA>
8.537000000000001e+001

>  <Hacc>
5

>  <Hdon>
2

>  <LogSw>
-4.830000000000000e+000

>  <Group>
3

>  <Core>
246

$$$$
9034967
 OpenBabel03312015312D

 25 27  0  0  0  0  0  0  0  0999 V2000
    7.7250    1.9750    0.0000 C   0  0  0  0  0  0  0  0  0  0  0  0
    7.0750    1.6000    0.0000 C   0  0  0  0  0  0  0  0  0  0  0  0
   10.9667    1.6000    0.0000 N   0  0  0  0  0  0  0  0  0  0  0  0
   10.9667    3.1083    0.0000 N   0  0  0  0  0  0  0  0  0  0  0  0
   10.3250    1.9750    0.0000 C   0  0  0  0  0  0  0  0  0  0  0  0
    8.3750    1.6000    0.0000 N   0  0  0  0  0  0  0  0  0  0  0  0
   10.3250    2.7250    0.0000 C   0  0  0  0  0  0  0  0  0  0  0  0
   11.6167    1.9750    0.0000 C   0  0  0  0  0  0  0  0  0  0  0  0
   11.6167    2.7250    0.0000 C   0  0  0  0  0  0  0  0  0  0  0  0
    9.6750    1.6000    0.0000 C   0  0  0  0  0  0  0  0  0  0  0  0
    9.0250    1.9750    0.0000 C   0  0  0  0  0  0  0  0  0  0  0  0
    7.7250    2.7250    0.0000 O   0  0  0  0  0  0  0  0  0  0  0  0
    6.4250    1.9750    0.0000 C   0  0  0  0  0  0  0  0  0  0  0  0
    7.0750    0.8500    0.0000 C   0  0  0  0  0  0  0  0  0  0  0  0
    9.6750    3.1083    0.0000 C   0  0  0  0  0  0  0  0  0  0  0  0
    9.0250    2.7250    0.0000 C   0  0  0  0  0  0  0  0  0  0  0  0
    6.4250    2.7250    0.0000 O   0  0  0  0  0  0  0  0  0  0  0  0
    7.7250    0.4750    0.0000 O   0  0  0  0  0  0  0  0  0  0  0  0
    5.7750    0.8500    0.0000 C   0  0  0  0  0  0  0  0  0  0  0  0
   12.2667    3.1083    0.0000 C   0  0  0  0  0  0  0  0  0  0  0  0
   12.2667    1.6000    0.0000 C   0  0  0  0  0  0  0  0  0  0  0  0
    6.4250    0.4750    0.0000 C   0  0  0  0  0  0  0  0  0  0  0  0
    5.7750    1.6000    0.0000 C   0  0  0  0  0  0  0  0  0  0  0  0
    5.7750    3.1083    0.0000 C   0  0  0  0  0  0  0  0  0  0  0  0
    7.7250   -0.2750    0.0000 C   0  0  0  0  0  0  0  0  0  0  0  0
  2  1  1  0  0  0  0
  3  5  1  0  0  0  0
  4  7  1  0  0  0  0
  5 10  2  0  0  0  0
  5  7  1  0  0  0  0
  6  1  1  0  0  0  0
  7 15  2  0  0  0  0
  8  3  2  0  0  0  0
  8  9  1  0  0  0  0
  9  4  2  0  0  0  0
 10 11  1  0  0  0  0
 11  6  1  0  0  0  0
 12  1  2  0  0  0  0
 13  2  2  0  0  0  0
 14  2  1  0  0  0  0
 15 16  1  0  0  0  0
 16 11  2  0  0  0  0
 17 13  1  0  0  0  0
 18 14  1  0  0  0  0
 19 22  1  0  0  0  0
 20  9  1  0  0  0  0
 21  8  1  0  0  0  0
 22 14  2  0  0  0  0
 23 13  1  0  0  0  0
 23 19  2  0  0  0  0
 24 17  1  0  0  0  0
 25 18  1  0  0  0  0
M  END
>  <ID>
9034967

>  <Supplier>
ChemBridge

>  <clogP>
3.520000000000000e+000

>  <RB>
2

>  <tPSA>
7.334000000000000e+001

>  <Hacc>
5

>  <Hdon>
1

>  <LogSw>
-4.666000000000000e+000

>  <Group>
2

>  <Core>
423

$$$$
6381082
 OpenBabel03312015312D

 28 30  0  0  0  0  0  0  0  0999 V2000
    6.3625   -5.3792    0.0000 C   0  0  0  0  0  0  0  0  0  0  0  0
    5.7375   -4.9292    0.0000 S   0  0  0  0  0  0  0  0  0  0  0  0
    6.1125   -6.1292    0.0000 N   0  0  0  0  0  0  0  0  0  0  0  0
    5.1125   -5.3792    0.0000 C   0  0  0  0  0  0  0  0  0  0  0  0
    5.3500   -6.1292    0.0000 N   0  0  0  0  0  0  0  0  0  0  0  0
    7.0917   -5.1417    0.0000 N   0  0  0  0  0  0  0  0  0  0  0  0
    7.7625   -5.1292    0.0000 C   0  0  0  0  0  0  0  0  0  0  0  0
    4.0042   -5.7292    0.0000 C   0  0  0  0  0  0  0  0  0  0  0  0
    4.5917   -5.2125    0.0000 C   0  0  0  0  0  0  0  0  0  0  0  0
    8.1625   -5.7292    0.0000 N   0  0  0  0  0  0  0  0  0  0  0  0
    3.2792   -5.4875    0.0000 N   0  0  0  0  0  0  0  0  0  0  0  0
    8.1042   -4.5375    0.0000 O   0  0  0  0  0  0  0  0  0  0  0  0
    4.1542   -6.4750    0.0000 O   0  0  0  0  0  0  0  0  0  0  0  0
    8.4917   -6.3125    0.0000 C   0  0  0  0  0  0  0  0  0  0  0  0
    2.7042   -5.9917    0.0000 C   0  0  0  0  0  0  0  0  0  0  0  0
    9.1542   -7.4667    0.0000 C   0  0  0  0  0  0  0  0  0  0  0  0
    1.5667   -7.0000    0.0000 C   0  0  0  0  0  0  0  0  0  0  0  0
    9.4875   -8.0542    0.0000 F   0  0  0  0  0  0  0  0  0  0  0  0
    8.1542   -6.8875    0.0000 C   0  0  0  0  0  0  0  0  0  0  0  0
    2.8625   -6.7292    0.0000 C   0  0  0  0  0  0  0  0  0  0  0  0
    9.1542   -6.3125    0.0000 C   0  0  0  0  0  0  0  0  0  0  0  0
    1.9917   -5.7417    0.0000 C   0  0  0  0  0  0  0  0  0  0  0  0
    8.4875   -7.4625    0.0000 C   0  0  0  0  0  0  0  0  0  0  0  0
    9.4875   -6.8917    0.0000 C   0  0  0  0  0  0  0  0  0  0  0  0
    1.4167   -6.2500    0.0000 C   0  0  0  0  0  0  0  0  0  0  0  0
    2.2917   -7.2417    0.0000 C   0  0  0  0  0  0  0  0  0  0  0  0
    1.0042   -7.4917    0.0000 O   0  0  0  0  0  0  0  0  0  0  0  0
    1.1542   -8.2292    0.0000 C   0  0  0  0  0  0  0  0  0  0  0  0
  2  1  1  0  0  0  0
  3  1  2  0  0  0  0
  4  2  1  0  0  0  0
  4  5  2  0  0  0  0
  5  3  1  0  0  0  0
  6  1  1  0  0  0  0
  7  6  1  0  0  0  0
  8  9  1  0  0  0  0
  9  4  1  0  0  0  0
 10  7  1  0  0  0  0
 11  8  1  0  0  0  0
 12  7  2  0  0  0  0
 13  8  2  0  0  0  0
 14 10  1  0  0  0  0
 15 11  1  0  0  0  0
 16 24  2  0  0  0  0
 16 23  1  0  0  0  0
 17 25  2  0  0  0  0
 17 26  1  0  0  0  0
 18 16  1  0  0  0  0
 19 14  1  0  0  0  0
 20 15  1  0  0  0  0
 21 14  2  0  0  0  0
 22 15  2  0  0  0  0
 23 19  2  0  0  0  0
 24 21  1  0  0  0  0
 25 22  1  0  0  0  0
 26 20  2  0  0  0  0
 27 17  1  0  0  0  0
 28 27  1  0  0  0  0
M  END
>  <ID>
6381082

>  <Supplier>
ChemBridge

>  <clogP>
2.310000000000000e+000

>  <RB>
5

>  <tPSA>
1.052400000000000e+002

>  <Hacc>
5

>  <Hdon>
3

>  <LogSw>
-4.099000000000000e+000

>  <Group>
3

>  <Core>
246

$$$$
6381081
 OpenBabel03312015312D

 24 25  0  0  0  0  0  0  0  0999 V2000
    2.5042    0.3250    0.0000 C   0  0  0  0  0  0  0  0  0  0  0  0
    3.2250    0.7333    0.0000 N   0  0  0  0  0  0  0  0  0  0  0  0
    1.2042    0.3375    0.0000 O   0  0  0  0  0  0  0  0  0  0  0  0
    0.5625    0.7208    0.0000 C   0  0  0  0  0  0  0  0  0  0  0  0
   -0.0958    0.3583    0.0000 C   0  0  0  0  0  0  0  0  0  0  0  0
    4.5250    0.7333    0.0000 C   0  0  0  0  0  0  0  0  0  0  0  0
    5.1750    0.3500    0.0000 C   0  0  0  0  0  0  0  0  0  0  0  0
    1.8542    0.7083    0.0000 C   0  0  3  0  0  0  0  0  0  0  0  0
   -0.7375    0.7375    0.0000 C   0  0  0  0  0  0  0  0  0  0  0  0
    3.8667    0.3583    0.0000 C   0  0  0  0  0  0  0  0  0  0  0  0
    5.1667   -0.4042    0.0000 C   0  0  0  0  0  0  0  0  0  0  0  0
    2.5000   -0.5000    0.0000 O   0  0  0  0  0  0  0  0  0  0  0  0
    0.5667    1.4708    0.0000 C   0  0  0  0  0  0  0  0  0  0  0  0
    4.5167   -0.7750    0.0000 C   0  0  0  0  0  0  0  0  0  0  0  0
   -0.7333    1.4875    0.0000 C   0  0  0  0  0  0  0  0  0  0  0  0
   -0.1000   -0.3917    0.0000 Cl  0  0  0  0  0  0  0  0  0  0  0  0
    3.8667   -0.3917    0.0000 C   0  0  0  0  0  0  0  0  0  0  0  0
   -0.0750    1.8583    0.0000 C   0  0  0  0  0  0  0  0  0  0  0  0
    5.8250    0.7208    0.0000 O   0  0  0  0  0  0  0  0  0  0  0  0
   -1.3750    1.8708    0.0000 Cl  0  0  0  0  0  0  0  0  0  0  0  0
    5.8167   -0.7792    0.0000 O   0  0  0  0  0  0  0  0  0  0  0  0
    1.8667    1.4583    0.0000 C   0  0  0  0  0  0  0  0  0  0  0  0
    5.8292    1.4708    0.0000 C   0  0  0  0  0  0  0  0  0  0  0  0
    6.4667   -0.4125    0.0000 C   0  0  0  0  0  0  0  0  0  0  0  0
  2  1  1  0  0  0  0
  3  8  1  0  0  0  0
  4  3  1  0  0  0  0
  5  4  2  0  0  0  0
  6 10  2  0  0  0  0
  7  6  1  0  0  0  0
  7 11  2  0  0  0  0
  8  1  1  0  0  0  0
  9  5  1  0  0  0  0
  9 15  2  0  0  0  0
 10  2  1  0  0  0  0
 11 14  1  0  0  0  0
 12  1  2  0  0  0  0
 13  4  1  0  0  0  0
 14 17  2  0  0  0  0
 15 18  1  0  0  0  0
 16  5  1  0  0  0  0
 17 10  1  0  0  0  0
 18 13  2  0  0  0  0
 19  7  1  0  0  0  0
 20 15  1  0  0  0  0
 21 11  1  0  0  0  0
 22  8  1  0  0  0  0
 23 19  1  0  0  0  0
 24 21  1  0  0  0  0
M  END
>  <ID>
6381081

>  <Supplier>
ChemBridge

>  <clogP>
4.100000000000000e+000

>  <RB>
4

>  <tPSA>
5.679000000000001e+001

>  <Hacc>
4

>  <Hdon>
1

>  <LogSw>
-5.401000000000002e+000

>  <Group>
2

>  <Core>
315

$$$$
7227723
 OpenBabel03312015312D

 23 25  0  0  0  0  0  0  0  0999 V2000
    2.1125   -0.2292    0.0000 N   0  0  0  0  0  0  0  0  0  0  0  0
    2.3625   -1.0167    0.0000 C   0  0  0  0  0  0  0  0  0  0  0  0
    3.4417   -0.2292    0.0000 C   0  0  0  0  0  0  0  0  0  0  0  0
    2.7750    0.2583    0.0000 C   0  0  0  0  0  0  0  0  0  0  0  0
    3.1875   -1.0167    0.0000 S   0  0  0  0  0  0  0  0  0  0  0  0
    4.2292    0.0250    0.0000 C   0  0  0  0  0  0  0  0  0  0  0  0
    4.4042    0.8333    0.0000 C   0  0  0  0  0  0  0  0  0  0  0  0
    5.1542    1.1708    0.0000 N   0  0  0  0  0  0  0  0  0  0  0  0
    0.7125   -0.5292    0.0000 C   0  0  0  0  0  0  0  0  0  0  0  0
    5.8750    0.7583    0.0000 C   0  0  0  0  0  0  0  0  0  0  0  0
    0.1250   -1.1125    0.0000 C   0  0  0  0  0  0  0  0  0  0  0  0
    5.0667    1.9875    0.0000 C   0  0  0  0  0  0  0  0  0  0  0  0
    1.8792   -1.6792    0.0000 O   0  0  0  0  0  0  0  0  0  0  0  0
    3.8542    1.4458    0.0000 C   0  0  0  0  0  0  0  0  0  0  0  0
    2.7750    1.0833    0.0000 O   0  0  0  0  0  0  0  0  0  0  0  0
    4.2667    2.1583    0.0000 C   0  0  0  0  0  0  0  0  0  0  0  0
    1.3292    0.0250    0.0000 C   0  0  0  0  0  0  0  0  0  0  0  0
    5.8667   -0.0750    0.0000 C   0  0  0  0  0  0  0  0  0  0  0  0
    6.5792    1.1708    0.0000 C   0  0  0  0  0  0  0  0  0  0  0  0
    7.3000   -0.0750    0.0000 C   0  0  0  0  0  0  0  0  0  0  0  0
    6.5792   -0.4875    0.0000 C   0  0  0  0  0  0  0  0  0  0  0  0
    7.3000    0.7500    0.0000 C   0  0  0  0  0  0  0  0  0  0  0  0
    8.0167   -0.4917    0.0000 F   0  0  0  0  0  0  0  0  0  0  0  0
  2  1  1  0  0  0  0
  3  4  1  0  0  0  0
  4  1  1  0  0  0  0
  5  2  1  0  0  0  0
  5  3  1  0  0  0  0
  6  3  2  0  0  0  0
  7  6  1  0  0  0  0
  8  7  1  0  0  0  0
  9 17  1  0  0  0  0
 10  8  1  0  0  0  0
 11  9  3  0  0  0  0
 12  8  1  0  0  0  0
 12 16  2  0  0  0  0
 13  2  2  0  0  0  0
 14  7  2  0  0  0  0
 15  4  2  0  0  0  0
 16 14  1  0  0  0  0
 17  1  1  0  0  0  0
 18 10  2  0  0  0  0
 19 10  1  0  0  0  0
 20 22  1  0  0  0  0
 21 18  1  0  0  0  0
 21 20  2  0  0  0  0
 22 19  2  0  0  0  0
 23 20  1  0  0  0  0
M  END
>  <ID>
7227723

>  <Supplier>
ChemBridge

>  <clogP>
4.100000000000000e+000

>  <RB>
4

>  <tPSA>
4.231000000000002e+001

>  <Hacc>
3

>  <Hdon>
0

>  <LogSw>
-5.081000000000000e+000

>  <Group>
2

>  <Core>
002

$$$$
7227728
 OpenBabel03312015312D

 23 24  0  0  0  0  0  0  0  0999 V2000
    2.2292   -2.4792    0.0000 C   0  0  0  0  0  0  0  0  0  0  0  0
    6.5000   -3.2792    0.0000 C   0  0  0  0  0  0  0  0  0  0  0  0
    2.7125   -3.2917    0.0000 N   0  0  0  0  0  0  0  0  0  0  0  0
    2.6917   -1.6625    0.0000 C   0  0  0  0  0  0  0  0  0  0  0  0
    5.5542   -3.2792    0.0000 C   0  0  0  0  0  0  0  0  0  0  0  0
    6.9792   -4.0917    0.0000 N   0  0  0  0  0  0  0  0  0  0  0  0
    6.9667   -2.4500    0.0000 O   0  0  0  0  0  0  0  0  0  0  0  0
    1.2917   -2.4875    0.0000 O   0  0  0  0  0  0  0  0  0  0  0  0
    2.2167   -0.8542    0.0000 C   0  0  0  0  0  0  0  0  0  0  0  0
    5.0792   -4.1042    0.0000 C   0  0  0  0  0  0  0  0  0  0  0  0
    5.0792   -2.4625    0.0000 C   0  0  0  0  0  0  0  0  0  0  0  0
    3.6542   -3.2875    0.0000 C   0  0  0  0  0  0  0  0  0  0  0  0
    2.6792   -0.0417    0.0000 C   0  0  0  0  0  0  0  0  0  0  0  0
    4.1250   -2.4625    0.0000 C   0  0  0  0  0  0  0  0  0  0  0  0
    4.1292   -4.1125    0.0000 C   0  0  0  0  0  0  0  0  0  0  0  0
    2.2042    0.7708    0.0000 I   0  0  0  0  0  0  0  0  0  0  0  0
    3.6292   -1.6542    0.0000 C   0  0  0  0  0  0  0  0  0  0  0  0
    4.0917   -0.8417    0.0000 C   0  0  0  0  0  0  0  0  0  0  0  0
    6.5167   -4.9167    0.0000 C   0  0  0  0  0  0  0  0  0  0  0  0
    7.9250   -4.0875    0.0000 C   0  0  0  0  0  0  0  0  0  0  0  0
    3.6167   -0.0292    0.0000 C   0  0  0  0  0  0  0  0  0  0  0  0
    6.9917   -5.7292    0.0000 C   0  0  0  0  0  0  0  0  0  0  0  0
    8.4042   -4.9042    0.0000 C   0  0  0  0  0  0  0  0  0  0  0  0
  2  5  1  0  0  0  0
  3  1  1  0  0  0  0
  4  1  1  0  0  0  0
  5 10  1  0  0  0  0
  5 11  2  0  0  0  0
  6  2  1  0  0  0  0
  7  2  2  0  0  0  0
  8  1  2  0  0  0  0
  9  4  2  0  0  0  0
 10 15  2  0  0  0  0
 11 14  1  0  0  0  0
 12  3  1  0  0  0  0
 13  9  1  0  0  0  0
 14 12  2  0  0  0  0
 15 12  1  0  0  0  0
 16 13  1  0  0  0  0
 17  4  1  0  0  0  0
 18 17  2  0  0  0  0
 19  6  1  0  0  0  0
 20  6  1  0  0  0  0
 21 18  1  0  0  0  0
 21 13  2  0  0  0  0
 22 19  1  0  0  0  0
 23 20  1  0  0  0  0
M  END
>  <ID>
7227728

>  <Supplier>
ChemBridge

>  <clogP>
3.830000000000000e+000

>  <RB>
3

>  <tPSA>
4.941000000000002e+001

>  <Hacc>
2

>  <Hdon>
1

>  <LogSw>
-5.549000000000000e+000

>  <Group>
2

>  <Core>
150

$$$$
7845540
 OpenBabel03312015312D

 27 29  0  0  0  0  0  0  0  0999 V2000
   -2.3083    3.1083    0.0000 C   0  0  3  0  0  0  0  0  0  0  0  0
   -1.6250    3.4083    0.0000 N   0  0  0  0  0  0  0  0  0  0  0  0
   -1.7083    4.1500    0.0000 N   0  0  0  0  0  0  0  0  0  0  0  0
   -2.9208    2.6625    0.0000 C   0  0  0  0  0  0  0  0  0  0  0  0
   -2.8125    3.6708    0.0000 C   0  0  0  0  0  0  0  0  0  0  0  0
   -2.4375    4.3042    0.0000 C   0  0  0  0  0  0  0  0  0  0  0  0
   -0.9750    3.0333    0.0000 C   0  0  0  0  0  0  0  0  0  0  0  0
    2.2667    3.4083    0.0000 C   0  0  0  0  0  0  0  0  0  0  0  0
    2.2667    4.1542    0.0000 C   0  0  0  0  0  0  0  0  0  0  0  0
    2.9875    3.1833    0.0000 O   0  0  0  0  0  0  0  0  0  0  0  0
    2.9875    4.3875    0.0000 O   0  0  0  0  0  0  0  0  0  0  0  0
   -1.9333    2.4583    0.0000 O   0  0  0  0  0  0  0  0  0  0  0  0
    3.4250    3.7833    0.0000 C   0  0  0  0  0  0  0  0  0  0  0  0
   -0.9750    2.2833    0.0000 O   0  0  0  0  0  0  0  0  0  0  0  0
    1.6250    3.0333    0.0000 C   0  0  0  0  0  0  0  0  0  0  0  0
   -0.3250    3.4083    0.0000 C   0  0  0  0  0  0  0  0  0  0  0  0
   -3.5000    3.1333    0.0000 F   0  0  0  0  0  0  0  0  0  0  0  0
   -3.4375    2.1250    0.0000 F   0  0  0  0  0  0  0  0  0  0  0  0
   -2.4250    2.0958    0.0000 F   0  0  0  0  0  0  0  0  0  0  0  0
    1.6250    4.5292    0.0000 C   0  0  0  0  0  0  0  0  0  0  0  0
   -2.7458    4.9917    0.0000 C   0  0  0  0  0  0  0  0  0  0  0  0
    0.9750    3.4083    0.0000 C   0  0  0  0  0  0  0  0  0  0  0  0
    0.3250    3.0333    0.0000 C   0  0  0  0  0  0  0  0  0  0  0  0
    0.9750    4.1542    0.0000 C   0  0  0  0  0  0  0  0  0  0  0  0
   -3.4875    5.0667    0.0000 C   0  0  0  0  0  0  0  0  0  0  0  0
   -3.7958    5.7542    0.0000 C   0  0  0  0  0  0  0  0  0  0  0  0
   -3.9333    4.4625    0.0000 C   0  0  0  0  0  0  0  0  0  0  0  0
  2  1  1  0  0  0  0
  3  2  1  0  0  0  0
  3  6  2  0  0  0  0
  4  1  1  0  0  0  0
  5  1  1  0  0  0  0
  6  5  1  0  0  0  0
  7  2  1  0  0  0  0
  8 15  2  0  0  0  0
  9 20  2  0  0  0  0
  9  8  1  0  0  0  0
 10  8  1  0  0  0  0
 11  9  1  0  0  0  0
 12  1  1  0  0  0  0
 13 10  1  0  0  0  0
 13 11  1  0  0  0  0
 14  7  2  0  0  0  0
 15 22  1  0  0  0  0
 16  7  1  0  0  0  0
 17  4  1  0  0  0  0
 18  4  1  0  0  0  0
 19  4  1  0  0  0  0
 20 24  1  0  0  0  0
 21  6  1  0  0  0  0
 22 23  1  0  0  0  0
 23 16  1  0  0  0  0
 24 22  2  0  0  0  0
 25 21  1  0  0  0  0
 26 25  1  0  0  0  0
 27 25  1  0  0  0  0
M  END
>  <ID>
7845540

>  <Supplier>
ChemBridge

>  <clogP>
4.576000000000001e+000

>  <RB>
4

>  <tPSA>
7.136000000000000e+001

>  <Hacc>
5

>  <Hdon>
1

>  <LogSw>
-5.925000000000000e+000

>  <Group>
1

>  <Core>
195

$$$$
9025824
 OpenBabel03312015312D

 25 27  0  0  0  0  0  0  0  0999 V2000
    1.7792   -3.2542    0.0000 C   0  0  0  0  0  0  0  0  0  0  0  0
    3.9417   -4.4917    0.0000 N   0  0  0  0  0  0  0  0  0  0  0  0
    9.6917   -4.4917    0.0000 C   0  0  0  0  0  0  0  0  0  0  0  0
    2.5042   -3.6667    0.0000 C   0  0  0  0  0  0  0  0  0  0  0  0
    9.6917   -3.6667    0.0000 C   0  0  0  0  0  0  0  0  0  0  0  0
    8.9750   -4.9125    0.0000 C   0  0  0  0  0  0  0  0  0  0  0  0
    1.7792   -2.4375    0.0000 O   0  0  0  0  0  0  0  0  0  0  0  0
    8.9750   -3.2542    0.0000 C   0  0  0  0  0  0  0  0  0  0  0  0
    3.2167   -3.2542    0.0000 C   0  0  0  0  0  0  0  0  0  0  0  0
    2.5042   -4.4917    0.0000 C   0  0  0  0  0  0  0  0  0  0  0  0
    3.2167   -4.9125    0.0000 C   0  0  0  0  0  0  0  0  0  0  0  0
    3.9417   -3.6667    0.0000 C   0  0  0  0  0  0  0  0  0  0  0  0
    8.2542   -4.4917    0.0000 C   0  0  0  0  0  0  0  0  0  0  0  0
    1.0625   -3.6667    0.0000 O   0  0  0  0  0  0  0  0  0  0  0  0
    8.2542   -3.6667    0.0000 C   0  0  0  0  0  0  0  0  0  0  0  0
    7.5292   -4.9125    0.0000 O   0  0  0  0  0  0  0  0  0  0  0  0
    4.6542   -4.9125    0.0000 C   0  0  0  0  0  0  0  0  0  0  0  0
   10.4792   -4.7542    0.0000 C   0  0  0  0  0  0  0  0  0  0  0  0
   10.9542   -4.0792    0.0000 C   0  0  0  0  0  0  0  0  0  0  0  0
   10.4792   -3.4167    0.0000 C   0  0  0  0  0  0  0  0  0  0  0  0
    0.3542   -3.2542    0.0000 C   0  0  0  0  0  0  0  0  0  0  0  0
    6.8167   -4.4917    0.0000 C   0  0  0  0  0  0  0  0  0  0  0  0
    5.3792   -4.4917    0.0000 C   0  0  0  0  0  0  0  0  0  0  0  0
    6.0917   -4.9125    0.0000 C   0  0  0  0  0  0  0  0  0  0  0  0
   -0.3625   -3.6667    0.0000 C   0  0  0  0  0  0  0  0  0  0  0  0
  2 11  1  0  0  0  0
  2 12  1  0  0  0  0
  3  6  2  0  0  0  0
  3  5  1  0  0  0  0
  4  1  1  0  0  0  0
  5  8  2  0  0  0  0
  6 13  1  0  0  0  0
  7  1  2  0  0  0  0
  8 15  1  0  0  0  0
  9  4  1  0  0  0  0
 10  4  1  0  0  0  0
 11 10  1  0  0  0  0
 12  9  1  0  0  0  0
 13 16  1  0  0  0  0
 14  1  1  0  0  0  0
 15 13  2  0  0  0  0
 16 22  1  0  0  0  0
 17  2  1  0  0  0  0
 18  3  1  0  0  0  0
 19 18  1  0  0  0  0
 20  5  1  0  0  0  0
 20 19  1  0  0  0  0
 21 14  1  0  0  0  0
 22 24  1  0  0  0  0
 23 17  1  0  0  0  0
 24 23  1  0  0  0  0
 25 21  1  0  0  0  0
M  END
>  <ID>
9025824

>  <Supplier>
ChemBridge

>  <clogP>
3.340000000000000e+000

>  <RB>
7

>  <tPSA>
3.877000000000000e+001

>  <Hacc>
4

>  <Hdon>
0

>  <LogSw>
-3.563000000000000e+000

>  <Group>
2

>  <Core>
105

$$$$
7158700
 OpenBabel03312015312D

 24 25  0  0  0  0  0  0  0  0999 V2000
    3.0000    1.1500    0.0000 C   0  0  0  0  0  0  0  0  0  0  0  0
    2.5167    0.3708    0.0000 S   0  0  0  0  0  0  0  0  0  0  0  0
    1.6042    0.6000    0.0000 C   0  0  0  0  0  0  0  0  0  0  0  0
    2.4375    1.8208    0.0000 N   0  0  0  0  0  0  0  0  0  0  0  0
    3.9292    1.2333    0.0000 C   0  0  0  0  0  0  0  0  0  0  0  0
    1.5792    1.4958    0.0000 N   0  0  0  0  0  0  0  0  0  0  0  0
    0.9042    0.0000    0.0000 N   0  0  0  0  0  0  0  0  0  0  0  0
    0.0000    0.0000    0.0000 C   0  0  0  0  0  0  0  0  0  0  0  0
   -2.8208    3.1333    0.0000 C   0  0  0  0  0  0  0  0  0  0  0  0
   -1.9833    3.4833    0.0000 C   0  0  0  0  0  0  0  0  0  0  0  0
   -3.5458    3.7083    0.0000 C   0  0  0  0  0  0  0  0  0  0  0  0
   -0.2333   -0.9042    0.0000 O   0  0  0  0  0  0  0  0  0  0  0  0
    4.0292    0.3333    0.0000 F   0  0  0  0  0  0  0  0  0  0  0  0
    3.8292    2.1833    0.0000 F   0  0  0  0  0  0  0  0  0  0  0  0
    4.8542    1.3458    0.0000 F   0  0  0  0  0  0  0  0  0  0  0  0
   -1.8458    4.3875    0.0000 C   0  0  0  0  0  0  0  0  0  0  0  0
   -3.4333    4.6042    0.0000 C   0  0  0  0  0  0  0  0  0  0  0  0
   -2.5958    4.9542    0.0000 C   0  0  0  0  0  0  0  0  0  0  0  0
   -4.1833    5.1542    0.0000 Cl  0  0  0  0  0  0  0  0  0  0  0  0
   -1.2625    2.9333    0.0000 O   0  0  0  0  0  0  0  0  0  0  0  0
   -0.7458    0.5625    0.0000 C   0  0  0  0  0  0  0  0  0  0  0  0
   -2.9625    2.2208    0.0000 C   0  0  0  0  0  0  0  0  0  0  0  0
   -1.3500    2.0458    0.0000 C   0  0  0  0  0  0  0  0  0  0  0  0
   -0.6333    1.4625    0.0000 C   0  0  0  0  0  0  0  0  0  0  0  0
  2  1  1  0  0  0  0
  3  2  1  0  0  0  0
  3  6  2  0  0  0  0
  4  1  2  0  0  0  0
  5  1  1  0  0  0  0
  6  4  1  0  0  0  0
  7  3  1  0  0  0  0
  8  7  1  0  0  0  0
  9 10  1  0  0  0  0
 10 20  1  0  0  0  0
 11  9  2  0  0  0  0
 12  8  2  0  0  0  0
 13  5  1  0  0  0  0
 14  5  1  0  0  0  0
 15  5  1  0  0  0  0
 16 10  2  0  0  0  0
 17 18  2  0  0  0  0
 17 11  1  0  0  0  0
 18 16  1  0  0  0  0
 19 17  1  0  0  0  0
 20 23  1  0  0  0  0
 21  8  1  0  0  0  0
 22  9  1  0  0  0  0
 23 24  1  0  0  0  0
 24 21  1  0  0  0  0
M  END
>  <ID>
7158700

>  <Supplier>
ChemBridge

>  <clogP>
4.090000000000000e+000

>  <RB>
6

>  <tPSA>
6.411000000000000e+001

>  <Hacc>
4

>  <Hdon>
1

>  <LogSw>
-5.462000000000000e+000

>  <Group>
3

>  <Core>
246

$$$$
7845547
 OpenBabel03312015312D

 34 38  0  0  0  0  0  0  0  0999 V2000
    5.4292    2.4083    0.0000 C   0  0  0  0  0  0  0  0  0  0  0  0
    6.0792    2.7833    0.0000 C   0  0  0  0  0  0  0  0  0  0  0  0
    6.3375    1.5958    0.0000 N   0  0  0  0  0  0  0  0  0  0  0  0
    6.6417    2.2833    0.0000 C   0  0  0  0  0  0  0  0  0  0  0  0
    4.7875    2.7833    0.0000 C   0  0  0  0  0  0  0  0  0  0  0  0
    5.5917    1.6708    0.0000 C   0  0  3  0  0  0  0  0  0  0  0  0
    6.0792    3.5333    0.0000 O   0  0  0  0  0  0  0  0  0  0  0  0
    4.7875    3.5333    0.0000 C   0  0  0  0  0  0  0  0  0  0  0  0
    3.5792   -0.5542    0.0000 N   0  3  0  0  0  0  0  0  0  0  0  0
    5.4292    3.9083    0.0000 C   0  0  0  0  0  0  0  0  0  0  0  0
    6.7125    0.9458    0.0000 C   0  0  0  0  0  0  0  0  0  0  0  0
    4.0875    0.0000    0.0000 C   0  0  0  0  0  0  0  0  0  0  0  0
    5.0875    1.1125    0.0000 C   0  0  0  0  0  0  0  0  0  0  0  0
    2.8500   -0.4042    0.0000 O   0  5  0  0  0  0  0  0  0  0  0  0
    7.3750    2.4333    0.0000 O   0  0  0  0  0  0  0  0  0  0  0  0
    4.1375    2.4083    0.0000 O   0  0  0  0  0  0  0  0  0  0  0  0
    4.1375    3.9083    0.0000 C   0  0  0  0  0  0  0  0  0  0  0  0
    3.8167   -1.2667    0.0000 O   0  0  0  0  0  0  0  0  0  0  0  0
    5.4292    4.6500    0.0000 C   0  0  0  0  0  0  0  0  0  0  0  0
    4.8167   -0.1542    0.0000 C   0  0  0  0  0  0  0  0  0  0  0  0
    3.8542    0.7125    0.0000 C   0  0  0  0  0  0  0  0  0  0  0  0
    5.3167    0.4000    0.0000 C   0  0  0  0  0  0  0  0  0  0  0  0
    4.3542    1.2708    0.0000 C   0  0  0  0  0  0  0  0  0  0  0  0
    4.1375    4.6500    0.0000 C   0  0  0  0  0  0  0  0  0  0  0  0
    7.4500    1.0750    0.0000 C   0  0  0  0  0  0  0  0  0  0  0  0
    8.9292    1.3333    0.0000 C   0  0  0  0  0  0  0  0  0  0  0  0
    4.7875    5.0250    0.0000 C   0  0  0  0  0  0  0  0  0  0  0  0
    3.4875    5.0250    0.0000 Br  0  0  0  0  0  0  0  0  0  0  0  0
    7.9292    0.5000    0.0000 C   0  0  0  0  0  0  0  0  0  0  0  0
    7.7042    1.7833    0.0000 C   0  0  0  0  0  0  0  0  0  0  0  0
    8.4417    1.9083    0.0000 C   0  0  0  0  0  0  0  0  0  0  0  0
    8.6667    0.6333    0.0000 C   0  0  0  0  0  0  0  0  0  0  0  0
    9.6667    1.4625    0.0000 O   0  0  0  0  0  0  0  0  0  0  0  0
   10.1417    0.8875    0.0000 C   0  0  0  0  0  0  0  0  0  0  0  0
  2  1  2  0  0  0  0
  3  6  1  0  0  0  0
  3  4  1  0  0  0  0
  4  2  1  0  0  0  0
  5  1  1  0  0  0  0
  6  1  1  0  0  0  0
  7  2  1  0  0  0  0
  7 10  1  0  0  0  0
  8  5  1  0  0  0  0
  9 12  1  0  0  0  0
 10  8  2  0  0  0  0
 11  3  1  0  0  0  0
 12 21  1  0  0  0  0
 12 20  2  0  0  0  0
 13  6  1  0  0  0  0
 14  9  1  0  0  0  0
 15  4  2  0  0  0  0
 16  5  2  0  0  0  0
 17  8  1  0  0  0  0
 18  9  2  0  0  0  0
 19 10  1  0  0  0  0
 19 27  2  0  0  0  0
 20 22  1  0  0  0  0
 21 23  2  0  0  0  0
 22 13  2  0  0  0  0
 23 13  1  0  0  0  0
 24 17  2  0  0  0  0
 25 11  1  0  0  0  0
 26 31  2  0  0  0  0
 27 24  1  0  0  0  0
 28 24  1  0  0  0  0
 29 25  1  0  0  0  0
 30 25  2  0  0  0  0
 31 30  1  0  0  0  0
 32 29  2  0  0  0  0
 32 26  1  0  0  0  0
 33 26  1  0  0  0  0
 34 33  1  0  0  0  0
M  CHG  2   9   1  14  -1
M  END
>  <ID>
7845547

>  <Supplier>
ChemBridge

>  <clogP>
4.169000000000000e+000

>  <RB>
3

>  <tPSA>
1.028900000000000e+002

>  <Hacc>
6

>  <Hdon>
0

>  <LogSw>
-6.950000000000000e+000

>  <Group>
1

>  <Core>
082

$$$$
6429760
 OpenBabel03312015312D

 22 23  0  0  0  0  0  0  0  0999 V2000
    2.5042    0.3250    0.0000 C   0  0  0  0  0  0  0  0  0  0  0  0
    3.2250    0.7333    0.0000 N   0  0  0  0  0  0  0  0  0  0  0  0
    4.5250    1.4833    0.0000 N   0  0  0  0  0  0  0  0  0  0  0  0
    3.8667    0.3583    0.0000 C   0  0  0  0  0  0  0  0  0  0  0  0
    4.5167    0.7333    0.0000 C   0  0  0  0  0  0  0  0  0  0  0  0
    5.1792    1.8583    0.0000 C   0  0  0  0  0  0  0  0  0  0  0  0
    1.8542    0.7083    0.0000 C   0  0  3  0  0  0  0  0  0  0  0  0
    1.2042    0.3375    0.0000 O   0  0  0  0  0  0  0  0  0  0  0  0
    2.5000   -0.5000    0.0000 O   0  0  0  0  0  0  0  0  0  0  0  0
    5.1792    2.6083    0.0000 O   0  0  0  0  0  0  0  0  0  0  0  0
    0.5625    0.7208    0.0000 C   0  0  0  0  0  0  0  0  0  0  0  0
    3.8667   -0.3917    0.0000 C   0  0  0  0  0  0  0  0  0  0  0  0
    5.1667    0.3500    0.0000 C   0  0  0  0  0  0  0  0  0  0  0  0
    5.8292    1.4708    0.0000 C   0  0  0  0  0  0  0  0  0  0  0  0
    1.8667    1.4583    0.0000 C   0  0  0  0  0  0  0  0  0  0  0  0
    0.5667    1.4708    0.0000 C   0  0  0  0  0  0  0  0  0  0  0  0
   -0.0958    0.3583    0.0000 C   0  0  0  0  0  0  0  0  0  0  0  0
    4.5125   -0.7667    0.0000 C   0  0  0  0  0  0  0  0  0  0  0  0
    5.1667   -0.4000    0.0000 C   0  0  0  0  0  0  0  0  0  0  0  0
   -0.7375    0.7375    0.0000 C   0  0  0  0  0  0  0  0  0  0  0  0
   -0.0750    1.8583    0.0000 C   0  0  0  0  0  0  0  0  0  0  0  0
   -0.7333    1.4875    0.0000 C   0  0  0  0  0  0  0  0  0  0  0  0
  2  1  1  0  0  0  0
  3  5  1  0  0  0  0
  4  2  1  0  0  0  0
  5  4  1  0  0  0  0
  6  3  1  0  0  0  0
  7  1  1  0  0  0  0
  8  7  1  0  0  0  0
  9  1  2  0  0  0  0
 10  6  2  0  0  0  0
 11  8  1  0  0  0  0
 12  4  2  0  0  0  0
 13  5  2  0  0  0  0
 14  6  1  0  0  0  0
 15  7  1  0  0  0  0
 16 11  1  0  0  0  0
 17 11  2  0  0  0  0
 18 12  1  0  0  0  0
 19 18  2  0  0  0  0
 19 13  1  0  0  0  0
 20 17  1  0  0  0  0
 21 16  2  0  0  0  0
 22 20  2  0  0  0  0
 22 21  1  0  0  0  0
M  END
>  <ID>
6429760

>  <Supplier>
ChemBridge

>  <clogP>
1.790000000000000e+000

>  <RB>
5

>  <tPSA>
6.743000000000001e+001

>  <Hacc>
3

>  <Hdon>
2

>  <LogSw>
-2.905000000000000e+000

>  <Group>
3

>  <Core>
155

$$$$
5321259
 OpenBabel03312015312D

 22 24  0  0  0  0  0  0  0  0999 V2000
   -2.0458   -0.1042    0.0000 C   0  0  0  0  0  0  0  0  0  0  0  0
   -2.4625    0.4958    0.0000 C   0  0  0  0  0  0  0  0  0  0  0  0
   -2.4625   -0.7292    0.0000 S   0  0  0  0  0  0  0  0  0  0  0  0
   -3.1833    0.2708    0.0000 C   0  0  0  0  0  0  0  0  0  0  0  0
   -1.2833   -0.1042    0.0000 N   0  0  0  0  0  0  0  0  0  0  0  0
   -3.1833   -0.4875    0.0000 C   0  0  0  0  0  0  0  0  0  0  0  0
   -0.9000   -0.7667    0.0000 C   0  0  0  0  0  0  0  0  0  0  0  0
   -2.2208    1.2125    0.0000 C   0  0  0  0  0  0  0  0  0  0  0  0
   -0.1208   -0.7667    0.0000 C   0  0  0  0  0  0  0  0  0  0  0  0
   -1.2833   -1.4292    0.0000 O   0  0  0  0  0  0  0  0  0  0  0  0
   -2.7208    1.7958    0.0000 O   0  0  0  0  0  0  0  0  0  0  0  0
    0.2542   -0.1042    0.0000 C   0  0  0  0  0  0  0  0  0  0  0  0
    0.2542   -1.4292    0.0000 C   0  0  0  0  0  0  0  0  0  0  0  0
   -1.4833    1.3708    0.0000 N   0  0  0  0  0  0  0  0  0  0  0  0
    1.4000   -0.7667    0.0000 C   0  0  0  0  0  0  0  0  0  0  0  0
   -3.8458    0.6500    0.0000 C   0  0  0  0  0  0  0  0  0  0  0  0
    1.0167   -0.1042    0.0000 C   0  0  0  0  0  0  0  0  0  0  0  0
    1.0167   -1.4500    0.0000 C   0  0  0  0  0  0  0  0  0  0  0  0
   -3.8458   -0.8667    0.0000 C   0  0  0  0  0  0  0  0  0  0  0  0
    2.1542   -0.7500    0.0000 F   0  0  0  0  0  0  0  0  0  0  0  0
   -4.5000    0.2708    0.0000 C   0  0  0  0  0  0  0  0  0  0  0  0
   -4.5000   -0.4875    0.0000 C   0  0  0  0  0  0  0  0  0  0  0  0
  2  1  2  0  0  0  0
  3  1  1  0  0  0  0
  4  2  1  0  0  0  0
  5  1  1  0  0  0  0
  6  3  1  0  0  0  0
  6  4  2  0  0  0  0
  7  5  1  0  0  0  0
  8  2  1  0  0  0  0
  9  7  1  0  0  0  0
 10  7  2  0  0  0  0
 11  8  2  0  0  0  0
 12  9  2  0  0  0  0
 13  9  1  0  0  0  0
 14  8  1  0  0  0  0
 15 18  1  0  0  0  0
 16  4  1  0  0  0  0
 17 12  1  0  0  0  0
 17 15  2  0  0  0  0
 18 13  2  0  0  0  0
 19  6  1  0  0  0  0
 20 15  1  0  0  0  0
 21 16  1  0  0  0  0
 22 19  1  0  0  0  0
 22 21  1  0  0  0  0
M  END
>  <ID>
5321259

>  <Supplier>
ChemBridge

>  <clogP>
3.330000000000000e+000

>  <RB>
3

>  <tPSA>
7.219000000000000e+001

>  <Hacc>
2

>  <Hdon>
2

>  <LogSw>
-4.366000000000000e+000

>  <Group>
3

>  <Core>
097

$$$$
6429765
 OpenBabel03312015312D

 21 22  0  0  0  0  0  0  0  0999 V2000
   -2.8833   -1.2167    0.0000 C   0  0  0  0  0  0  0  0  0  0  0  0
   -3.3708   -2.0042    0.0000 C   0  0  0  0  0  0  0  0  0  0  0  0
   -3.3125   -0.4000    0.0000 N   0  0  0  0  0  0  0  0  0  0  0  0
   -2.8208    0.3958    0.0000 C   0  0  0  0  0  0  0  0  0  0  0  0
   -1.9708   -1.2500    0.0000 C   0  0  0  0  0  0  0  0  0  0  0  0
   -4.2958   -1.9875    0.0000 C   0  0  0  0  0  0  0  0  0  0  0  0
   -4.8333   -2.7167    0.0000 O   0  0  0  0  0  0  0  0  0  0  0  0
   -1.8833    0.3708    0.0000 O   0  0  0  0  0  0  0  0  0  0  0  0
   -3.2708    1.2000    0.0000 C   0  0  0  0  0  0  0  0  0  0  0  0
   -4.7833   -1.2375    0.0000 C   0  0  0  0  0  0  0  0  0  0  0  0
   -1.5458   -2.0542    0.0000 O   0  0  0  0  0  0  0  0  0  0  0  0
   -5.7208   -2.4000    0.0000 C   0  0  0  0  0  0  0  0  0  0  0  0
   -5.6958   -1.4875    0.0000 C   0  0  0  0  0  0  0  0  0  0  0  0
   -1.4625   -0.4667    0.0000 O   0  0  0  0  0  0  0  0  0  0  0  0
   -2.7958    2.0208    0.0000 C   0  0  0  0  0  0  0  0  0  0  0  0
   -4.2083    1.2000    0.0000 C   0  0  0  0  0  0  0  0  0  0  0  0
   -0.5500   -0.5042    0.0000 C   0  0  0  0  0  0  0  0  0  0  0  0
   -0.0625    0.2708    0.0000 C   0  0  0  0  0  0  0  0  0  0  0  0
   -4.6708    2.0208    0.0000 C   0  0  0  0  0  0  0  0  0  0  0  0
   -3.2625    2.8208    0.0000 C   0  0  0  0  0  0  0  0  0  0  0  0
   -4.1958    2.8208    0.0000 C   0  0  0  0  0  0  0  0  0  0  0  0
  2  1  2  0  0  0  0
  3  1  1  0  0  0  0
  4  3  1  0  0  0  0
  5  1  1  0  0  0  0
  6  2  1  0  0  0  0
  7  6  1  0  0  0  0
  8  4  2  0  0  0  0
  9  4  1  0  0  0  0
 10  6  2  0  0  0  0
 11  5  2  0  0  0  0
 12  7  1  0  0  0  0
 13 10  1  0  0  0  0
 13 12  2  0  0  0  0
 14  5  1  0  0  0  0
 15  9  2  0  0  0  0
 16  9  1  0  0  0  0
 17 14  1  0  0  0  0
 18 17  1  0  0  0  0
 19 16  2  0  0  0  0
 20 15  1  0  0  0  0
 20 21  2  0  0  0  0
 21 19  1  0  0  0  0
M  END
>  <ID>
6429765

>  <Supplier>
ChemBridge

>  <clogP>
2.840000000000000e+000

>  <RB>
4

>  <tPSA>
6.854000000000001e+001

>  <Hacc>
4

>  <Hdon>
1

>  <LogSw>
-3.706000000000000e+000

>  <Group>
1

>  <Core>
008

$$$$
7677608
 OpenBabel03312015312D

 36 39  0  0  0  0  0  0  0  0999 V2000
    2.1250    0.0083    0.0000 N   0  0  0  0  0  0  0  0  0  0  0  0
    2.8417   -0.1875    0.0000 C   0  0  0  0  0  0  0  0  0  0  0  0
    3.1875    1.0583    0.0000 C   0  0  3  0  0  0  0  0  0  0  0  0
   -2.3750    0.0333    0.0000 N   0  0  0  0  0  0  0  0  0  0  0  0
    2.4667    1.2625    0.0000 C   0  0  0  0  0  0  0  0  0  0  0  0
    3.7250    1.5833    0.0000 C   0  0  0  0  0  0  0  0  0  0  0  0
   -1.6333   -0.4042    0.0000 C   0  0  0  0  0  0  0  0  0  0  0  0
    3.3875    0.3458    0.0000 C   0  0  0  0  0  0  0  0  0  0  0  0
    1.3750   -0.4167    0.0000 C   0  0  0  0  0  0  0  0  0  0  0  0
    4.4417    1.3833    0.0000 N   0  0  0  0  0  0  0  0  0  0  0  0
    3.0292   -0.9167    0.0000 O   0  0  0  0  0  0  0  0  0  0  0  0
   -3.1208   -0.4042    0.0000 C   0  0  3  0  0  0  0  0  0  0  0  0
   -2.3708    0.8958    0.0000 C   0  0  3  0  0  0  0  0  0  0  0  0
   -1.6333   -1.2667    0.0000 C   0  0  0  0  0  0  0  0  0  0  0  0
    3.5375    2.3083    0.0000 O   0  0  0  0  0  0  0  0  0  0  0  0
   -0.8875    0.0250    0.0000 O   0  0  0  0  0  0  0  0  0  0  0  0
    1.3667   -1.2875    0.0000 C   0  0  0  0  0  0  0  0  0  0  0  0
    0.6292    0.0208    0.0000 C   0  0  0  0  0  0  0  0  0  0  0  0
   -0.8833   -1.7042    0.0000 O   0  0  0  0  0  0  0  0  0  0  0  0
    4.6292    0.6583    0.0000 C   0  0  0  0  0  0  0  0  0  0  0  0
   -0.1208   -1.2750    0.0000 C   0  0  0  0  0  0  0  0  0  0  0  0
    5.3542    0.4583    0.0000 C   0  0  0  0  0  0  0  0  0  0  0  0
    6.8000    0.0500    0.0000 C   0  0  0  0  0  0  0  0  0  0  0  0
   -0.1125   -0.4042    0.0000 C   0  0  0  0  0  0  0  0  0  0  0  0
    0.6167   -1.7042    0.0000 C   0  0  0  0  0  0  0  0  0  0  0  0
    5.5417   -0.2750    0.0000 C   0  0  0  0  0  0  0  0  0  0  0  0
    5.8875    0.9833    0.0000 C   0  0  0  0  0  0  0  0  0  0  0  0
    6.6125    0.7833    0.0000 C   0  0  0  0  0  0  0  0  0  0  0  0
    6.2625   -0.4750    0.0000 C   0  0  0  0  0  0  0  0  0  0  0  0
    7.5250   -0.1500    0.0000 O   0  0  0  0  0  0  0  0  0  0  0  0
   -3.8583    0.8958    0.0000 C   0  0  0  0  0  0  0  0  0  0  0  0
   -3.1125    1.3208    0.0000 C   0  0  0  0  0  0  0  0  0  0  0  0
   -3.8625    0.0333    0.0000 C   0  0  0  0  0  0  0  0  0  0  0  0
   -3.1208   -1.2667    0.0000 C   0  0  0  0  0  0  0  0  0  0  0  0
   -1.6250    1.3208    0.0000 C   0  0  0  0  0  0  0  0  0  0  0  0
    7.7125   -0.8792    0.0000 C   0  0  0  0  0  0  0  0  0  0  0  0
  2  1  1  0  0  0  0
  3  5  1  0  0  0  0
  4  7  1  0  0  0  0
  5  1  1  0  0  0  0
  6  3  1  0  0  0  0
  7 14  1  0  0  0  0
  8  2  1  0  0  0  0
  8  3  1  0  0  0  0
  9  1  1  0  0  0  0
 10  6  1  0  0  0  0
 11  2  2  0  0  0  0
 12  4  1  0  0  0  0
 13  4  1  0  0  0  0
 14 19  1  0  0  0  0
 15  6  2  0  0  0  0
 16  7  2  0  0  0  0
 17  9  1  0  0  0  0
 18  9  2  0  0  0  0
 19 21  1  0  0  0  0
 20 10  1  0  0  0  0
 21 24  2  0  0  0  0
 21 25  1  0  0  0  0
 22 20  1  0  0  0  0
 23 28  1  0  0  0  0
 23 29  2  0  0  0  0
 24 18  1  0  0  0  0
 25 17  2  0  0  0  0
 26 22  2  0  0  0  0
 27 22  1  0  0  0  0
 28 27  2  0  0  0  0
 29 26  1  0  0  0  0
 30 23  1  0  0  0  0
 31 32  1  0  0  0  0
 32 13  1  0  0  0  0
 33 12  1  0  0  0  0
 33 31  1  0  0  0  0
 34 12  1  0  0  0  0
 35 13  1  0  0  0  0
 36 30  1  0  0  0  0
M  END
>  <ID>
7677608

>  <Supplier>
ChemBridge

>  <clogP>
4.474000000000000e+000

>  <RB>
7

>  <tPSA>
8.818000000000001e+001

>  <Hacc>
5

>  <Hdon>
1

>  <LogSw>
-4.891000000000000e+000

>  <Group>
1

>  <Core>
124

$$$$
6039965
 OpenBabel03312015312D

 26 26  0  0  0  0  0  0  0  0999 V2000
    0.9292    0.9000    0.0000 N   0  0  0  0  0  0  0  0  0  0  0  0
    2.0000    0.9625    0.0000 N   0  0  0  0  0  0  0  0  0  0  0  0
    1.4375    1.3708    0.0000 C   0  0  0  0  0  0  0  0  0  0  0  0
    1.7542    0.3708    0.0000 C   0  0  3  0  0  0  0  0  0  0  0  0
    1.2292    0.3708    0.0000 C   0  0  3  0  0  0  0  0  0  0  0  0
    2.0167    0.0000    0.0000 N   0  0  0  0  0  0  0  0  0  0  0  0
    0.9000   -0.0167    0.0000 N   0  0  0  0  0  0  0  0  0  0  0  0
    0.3667    0.0000    0.0000 C   0  0  0  0  0  0  0  0  0  0  0  0
    2.5792    0.0625    0.0000 C   0  0  0  0  0  0  0  0  0  0  0  0
    0.0292   -0.4292    0.0000 N   0  0  0  0  0  0  0  0  0  0  0  0
    2.9375   -0.3292    0.0000 N   0  0  0  0  0  0  0  0  0  0  0  0
    1.4375    1.7458    0.0000 O   0  0  0  0  0  0  0  0  0  0  0  0
    0.2292    0.4500    0.0000 O   0  0  0  0  0  0  0  0  0  0  0  0
    2.7375    0.4958    0.0000 O   0  0  0  0  0  0  0  0  0  0  0  0
   -0.4625   -0.3875    0.0000 C   0  0  0  0  0  0  0  0  0  0  0  0
    3.4500   -0.3042    0.0000 C   0  0  0  0  0  0  0  0  0  0  0  0
    0.2042    1.1958    0.0000 C   0  0  0  0  0  0  0  0  0  0  0  0
    2.6292    1.3500    0.0000 C   0  0  0  0  0  0  0  0  0  0  0  0
   -0.8458    0.4500    0.0000 O   0  0  0  0  0  0  0  0  0  0  0  0
    3.9167    0.3708    0.0000 O   0  0  0  0  0  0  0  0  0  0  0  0
   -0.4625    0.0833    0.0000 C   0  0  0  0  0  0  0  0  0  0  0  0
    3.4500    0.1208    0.0000 C   0  0  0  0  0  0  0  0  0  0  0  0
   -0.4625   -0.9792    0.0000 C   0  0  0  0  0  0  0  0  0  0  0  0
    3.4500   -0.8000    0.0000 C   0  0  0  0  0  0  0  0  0  0  0  0
    3.9500   -0.2875    0.0000 C   0  0  0  0  0  0  0  0  0  0  0  0
   -1.0625   -0.3875    0.0000 C   0  0  0  0  0  0  0  0  0  0  0  0
  2  3  1  0  0  0  0
  2  4  1  0  0  0  0
  3  1  1  0  0  0  0
  4  5  1  0  0  0  0
  5  1  1  0  0  0  0
  6  4  1  0  0  0  0
  7  5  1  0  0  0  0
  8  7  1  0  0  0  0
  9  6  1  0  0  0  0
 10  8  1  0  0  0  0
 11  9  1  0  0  0  0
 12  3  2  0  0  0  0
 13  8  2  0  0  0  0
 14  9  2  0  0  0  0
 15 10  1  0  0  0  0
 16 11  1  0  0  0  0
 17  1  1  0  0  0  0
 18  2  1  0  0  0  0
 19 21  1  0  0  0  0
 20 22  1  0  0  0  0
 21 15  1  0  0  0  0
 22 16  1  0  0  0  0
 23 15  1  0  0  0  0
 24 16  1  0  0  0  0
 25 16  1  0  0  0  0
 26 15  1  0  0  0  0
M  END
>  <ID>
6039965

>  <Supplier>
ChemBridge

>  <clogP>
-9.800000000000004e+000

>  <RB>
6

>  <tPSA>
1.462700000000000e+002

>  <Hacc>
5

>  <Hdon>
6

>  <LogSw>
4.270000000000002e-001

>  <Group>
3

$$$$
7677606
 OpenBabel03312015312D

 23 24  0  0  0  0  0  0  0  0999 V2000
    2.3417   -5.5667    0.0000 S   0  0  0  0  0  0  0  0  0  0  0  0
    3.7667   -3.9167    0.0000 C   0  0  0  0  0  0  0  0  0  0  0  0
    4.4875   -4.3292    0.0000 C   0  0  0  0  0  0  0  0  0  0  0  0
    3.0542   -5.1542    0.0000 N   0  0  0  0  0  0  0  0  0  0  0  0
    3.0542   -4.3292    0.0000 C   0  0  0  0  0  0  0  0  0  0  0  0
    5.2000   -3.9125    0.0000 N   0  0  0  0  0  0  0  0  0  0  0  0
    2.7500   -6.2792    0.0000 O   0  0  0  0  0  0  0  0  0  0  0  0
    1.9250   -6.2792    0.0000 O   0  0  0  0  0  0  0  0  0  0  0  0
    7.3417   -4.3292    0.0000 C   0  0  0  0  0  0  0  0  0  0  0  0
    5.9167   -4.3292    0.0000 C   0  0  0  0  0  0  0  0  0  0  0  0
    4.4875   -5.1542    0.0000 O   0  0  0  0  0  0  0  0  0  0  0  0
    6.6250   -3.9125    0.0000 C   0  0  0  0  0  0  0  0  0  0  0  0
    7.3375   -5.1625    0.0000 C   0  0  0  0  0  0  0  0  0  0  0  0
    6.6167   -5.5667    0.0000 C   0  0  0  0  0  0  0  0  0  0  0  0
    1.6250   -5.1542    0.0000 C   0  0  0  0  0  0  0  0  0  0  0  0
    5.9125   -5.1542    0.0000 C   0  0  0  0  0  0  0  0  0  0  0  0
    3.7667   -3.0875    0.0000 C   0  0  0  0  0  0  0  0  0  0  0  0
    3.7667   -5.5667    0.0000 C   0  0  0  0  0  0  0  0  0  0  0  0
    2.3417   -3.9167    0.0000 C   0  0  0  0  0  0  0  0  0  0  0  0
    8.0625   -3.9167    0.0000 C   0  0  0  0  0  0  0  0  0  0  0  0
    8.0542   -5.5750    0.0000 C   0  0  0  0  0  0  0  0  0  0  0  0
    3.0542   -2.6750    0.0000 C   0  0  0  0  0  0  0  0  0  0  0  0
    2.3417   -3.0875    0.0000 C   0  0  0  0  0  0  0  0  0  0  0  0
  2  5  2  0  0  0  0
  3  2  1  0  0  0  0
  4  1  1  0  0  0  0
  5  4  1  0  0  0  0
  6  3  1  0  0  0  0
  7  1  2  0  0  0  0
  8  1  2  0  0  0  0
  9 12  2  0  0  0  0
  9 13  1  0  0  0  0
 10  6  1  0  0  0  0
 11  3  2  0  0  0  0
 12 10  1  0  0  0  0
 13 14  2  0  0  0  0
 14 16  1  0  0  0  0
 15  1  1  0  0  0  0
 16 10  2  0  0  0  0
 17  2  1  0  0  0  0
 18  4  1  0  0  0  0
 19  5  1  0  0  0  0
 20  9  1  0  0  0  0
 21 13  1  0  0  0  0
 22 23  1  0  0  0  0
 22 17  2  0  0  0  0
 23 19  2  0  0  0  0
M  END
>  <ID>
7677606

>  <Supplier>
ChemBridge

>  <clogP>
1.308000000000000e+000

>  <RB>
3

>  <tPSA>
6.647999999999998e+001

>  <Hacc>
3

>  <Hdon>
1

>  <LogSw>
-4.645000000000000e+000

>  <Group>
2

>  <Core>
142

$$$$
5321252
 OpenBabel03312015312D

 20 21  0  0  0  0  0  0  0  0999 V2000
   -2.0458    0.2125    0.0000 C   0  0  0  0  0  0  0  0  0  0  0  0
    2.0375   -0.2667    0.0000 C   0  0  0  0  0  0  0  0  0  0  0  0
    1.2375    0.2125    0.0000 C   0  0  0  0  0  0  0  0  0  0  0  0
   -0.3958    0.2333    0.0000 N   0  0  0  0  0  0  0  0  0  0  0  0
    2.8667    0.1958    0.0000 C   0  0  0  0  0  0  0  0  0  0  0  0
   -2.8500   -0.2667    0.0000 N   0  0  0  0  0  0  0  0  0  0  0  0
   -1.2208   -0.2542    0.0000 N   0  0  0  0  0  0  0  0  0  0  0  0
   -2.0458    1.1500    0.0000 O   0  0  0  0  0  0  0  0  0  0  0  0
    0.4292   -0.2500    0.0000 C   0  0  0  0  0  0  0  0  0  0  0  0
    1.2542    1.1625    0.0000 C   0  0  0  0  0  0  0  0  0  0  0  0
    2.9000    1.1125    0.0000 C   0  0  0  0  0  0  0  0  0  0  0  0
    2.0375   -1.2042    0.0000 Cl  0  0  0  0  0  0  0  0  0  0  0  0
   -3.6708    0.2000    0.0000 C   0  0  0  0  0  0  0  0  0  0  0  0
    2.0875    1.6125    0.0000 C   0  0  0  0  0  0  0  0  0  0  0  0
    3.7375    1.5500    0.0000 Cl  0  0  0  0  0  0  0  0  0  0  0  0
   -4.4458   -0.2667    0.0000 C   0  0  0  0  0  0  0  0  0  0  0  0
   -3.6708    1.1333    0.0000 C   0  0  0  0  0  0  0  0  0  0  0  0
   -5.2708    0.1833    0.0000 C   0  0  0  0  0  0  0  0  0  0  0  0
   -4.4708    1.5833    0.0000 C   0  0  0  0  0  0  0  0  0  0  0  0
   -5.2708    1.1125    0.0000 C   0  0  0  0  0  0  0  0  0  0  0  0
  2  3  1  0  0  0  0
  3  9  1  0  0  0  0
  4  7  1  0  0  0  0
  5  2  2  0  0  0  0
  6  1  1  0  0  0  0
  7  1  1  0  0  0  0
  8  1  2  0  0  0  0
  9  4  2  0  0  0  0
 10  3  2  0  0  0  0
 11 14  2  0  0  0  0
 11  5  1  0  0  0  0
 12  2  1  0  0  0  0
 13  6  1  0  0  0  0
 14 10  1  0  0  0  0
 15 11  1  0  0  0  0
 16 13  1  0  0  0  0
 17 13  2  0  0  0  0
 18 16  2  0  0  0  0
 18 20  1  0  0  0  0
 19 17  1  0  0  0  0
 20 19  2  0  0  0  0
M  END
>  <ID>
5321252

>  <Supplier>
ChemBridge

>  <clogP>
4.760000000000000e+000

>  <RB>
3

>  <tPSA>
5.349000000000000e+001

>  <Hacc>
2

>  <Hdon>
2

>  <LogSw>
-5.513000000000000e+000

>  <Group>
1

$$$$
7677604
 OpenBabel03312015312D

 32 36  0  0  0  0  0  0  0  0999 V2000
   -3.1208   -1.1417    0.0000 N   0  0  0  0  0  0  0  0  0  0  0  0
   -2.6458   -0.3167    0.0000 C   0  0  0  0  0  0  0  0  0  0  0  0
   -3.2458   -1.7167    0.0000 C   0  0  0  0  0  0  0  0  0  0  0  0
   -3.2208   -0.2000    0.0000 C   0  0  0  0  0  0  0  0  0  0  0  0
   -3.5125   -0.7000    0.0000 C   0  0  0  0  0  0  0  0  0  0  0  0
   -2.5833   -0.9042    0.0000 C   0  0  3  0  0  0  0  0  0  0  0  0
   -2.2583    0.1125    0.0000 C   0  0  0  0  0  0  0  0  0  0  0  0
   -2.8583   -2.1542    0.0000 N   0  0  0  0  0  0  0  0  0  0  0  0
   -3.4083    0.3500    0.0000 O   0  0  0  0  0  0  0  0  0  0  0  0
   -3.7875   -1.9542    0.0000 S   0  0  0  0  0  0  0  0  0  0  0  0
   -2.4458    0.6708    0.0000 C   0  0  0  0  0  0  0  0  0  0  0  0
   -3.1500   -2.6625    0.0000 C   0  0  0  0  0  0  0  0  0  0  0  0
   -3.7250   -2.5375    0.0000 C   0  0  0  0  0  0  0  0  0  0  0  0
   -2.0750   -1.1917    0.0000 C   0  0  0  0  0  0  0  0  0  0  0  0
   -3.0125    0.7875    0.0000 C   0  0  0  0  0  0  0  0  0  0  0  0
   -4.1000   -0.7542    0.0000 O   0  0  0  0  0  0  0  0  0  0  0  0
   -1.6833   -0.0042    0.0000 O   0  0  0  0  0  0  0  0  0  0  0  0
   -1.5708   -0.9000    0.0000 C   0  0  0  0  0  0  0  0  0  0  0  0
   -0.0375   -1.7667    0.0000 C   0  0  0  0  0  0  0  0  0  0  0  0
    0.4667   -2.0625    0.0000 C   0  0  0  0  0  0  0  0  0  0  0  0
   -1.0583   -1.1917    0.0000 C   0  0  0  0  0  0  0  0  0  0  0  0
   -2.0750   -1.7792    0.0000 C   0  0  0  0  0  0  0  0  0  0  0  0
   -2.0583    1.1000    0.0000 C   0  0  0  0  0  0  0  0  0  0  0  0
   -2.9125   -3.2000    0.0000 C   0  0  0  0  0  0  0  0  0  0  0  0
   -4.1625   -2.9292    0.0000 C   0  0  0  0  0  0  0  0  0  0  0  0
   -0.5583   -0.8917    0.0000 O   0  0  0  0  0  0  0  0  0  0  0  0
   -3.1958    1.3375    0.0000 C   0  0  0  0  0  0  0  0  0  0  0  0
   -1.5708   -2.0750    0.0000 C   0  0  0  0  0  0  0  0  0  0  0  0
   -0.0458   -1.1792    0.0000 C   0  0  0  0  0  0  0  0  0  0  0  0
   -1.0583   -1.7792    0.0000 C   0  0  0  0  0  0  0  0  0  0  0  0
   -2.2375    1.6583    0.0000 C   0  0  0  0  0  0  0  0  0  0  0  0
   -2.8083    1.7708    0.0000 C   0  0  0  0  0  0  0  0  0  0  0  0
  2  6  1  0  0  0  0
  3  1  1  0  0  0  0
  4  5  1  0  0  0  0
  4  2  2  0  0  0  0
  5  1  1  0  0  0  0
  6  1  1  0  0  0  0
  7  2  1  0  0  0  0
  8  3  2  0  0  0  0
  9  4  1  0  0  0  0
 10  3  1  0  0  0  0
 11  7  1  0  0  0  0
 12  8  1  0  0  0  0
 13 10  1  0  0  0  0
 13 12  2  0  0  0  0
 14  6  1  0  0  0  0
 15  9  1  0  0  0  0
 15 11  2  0  0  0  0
 16  5  2  0  0  0  0
 17  7  2  0  0  0  0
 18 14  1  0  0  0  0
 19 29  1  0  0  0  0
 20 19  2  0  0  0  0
 21 18  2  0  0  0  0
 22 14  2  0  0  0  0
 23 11  1  0  0  0  0
 24 12  1  0  0  0  0
 25 13  1  0  0  0  0
 26 21  1  0  0  0  0
 27 15  1  0  0  0  0
 28 22  1  0  0  0  0
 29 26  1  0  0  0  0
 30 28  2  0  0  0  0
 30 21  1  0  0  0  0
 31 23  2  0  0  0  0
 31 32  1  0  0  0  0
 32 27  2  0  0  0  0
M  END
>  <ID>
7677604

>  <Supplier>
ChemBridge

>  <clogP>
4.454000000000000e+000

>  <RB>
5

>  <tPSA>
7.263999999999999e+001

>  <Hacc>
5

>  <Hdon>
0

>  <LogSw>
-7.533000000000000e+000

>  <Group>
1

>  <Core>
082

$$$$
7572975
 OpenBabel03312015312D

 23 25  0  0  0  0  0  0  0  0999 V2000
   -0.3500    0.0000    0.0000 C   0  0  0  0  0  0  0  0  0  0  0  0
    2.0500   -0.1542    0.0000 C   0  0  0  0  0  0  0  0  0  0  0  0
    1.2000    0.1958    0.0000 C   0  0  0  0  0  0  0  0  0  0  0  0
    0.4500   -0.3500    0.0000 N   0  0  0  0  0  0  0  0  0  0  0  0
   -1.2458   -0.3542    0.0000 N   0  0  0  0  0  0  0  0  0  0  0  0
   -1.1708    1.5125    0.0000 C   0  0  0  0  0  0  0  0  0  0  0  0
    2.1500   -1.0542    0.0000 C   0  0  0  0  0  0  0  0  0  0  0  0
   -1.9833    0.1000    0.0000 C   0  0  0  0  0  0  0  0  0  0  0  0
   -0.7333    2.3458    0.0000 C   0  0  0  0  0  0  0  0  0  0  0  0
   -0.2958    1.4500    0.0000 C   0  0  0  0  0  0  0  0  0  0  0  0
   -1.9833    1.0458    0.0000 C   0  0  0  0  0  0  0  0  0  0  0  0
   -0.3500    0.5708    0.0000 S   0  0  0  0  0  0  0  0  0  0  0  0
    2.9792   -1.4292    0.0000 O   0  0  0  0  0  0  0  0  0  0  0  0
    1.4500   -1.6292    0.0000 O   0  0  0  0  0  0  0  0  0  0  0  0
    2.8000    0.3833    0.0000 C   0  0  0  0  0  0  0  0  0  0  0  0
    1.0792    1.1125    0.0000 C   0  0  0  0  0  0  0  0  0  0  0  0
   -2.7958   -0.3542    0.0000 C   0  0  0  0  0  0  0  0  0  0  0  0
   -2.7958    1.5125    0.0000 C   0  0  0  0  0  0  0  0  0  0  0  0
    1.7667   -2.3292    0.0000 C   0  0  0  0  0  0  0  0  0  0  0  0
    2.6792    1.3125    0.0000 C   0  0  0  0  0  0  0  0  0  0  0  0
    1.8167    1.6708    0.0000 C   0  0  0  0  0  0  0  0  0  0  0  0
   -3.6000    0.1000    0.0000 C   0  0  0  0  0  0  0  0  0  0  0  0
   -3.6000    1.0458    0.0000 C   0  0  0  0  0  0  0  0  0  0  0  0
  2  3  2  0  0  0  0
  3  4  1  0  0  0  0
  4  1  1  0  0  0  0
  5  1  1  0  0  0  0
  6 11  1  0  0  0  0
  7  2  1  0  0  0  0
  8  5  1  0  0  0  0
  9  6  1  0  0  0  0
 10  6  1  0  0  0  0
 10  9  1  0  0  0  0
 11  8  2  0  0  0  0
 12  1  2  0  0  0  0
 13  7  2  0  0  0  0
 14  7  1  0  0  0  0
 15  2  1  0  0  0  0
 16  3  1  0  0  0  0
 17  8  1  0  0  0  0
 18 11  1  0  0  0  0
 19 14  1  0  0  0  0
 20 21  1  0  0  0  0
 20 15  2  0  0  0  0
 21 16  2  0  0  0  0
 22 17  2  0  0  0  0
 23 22  1  0  0  0  0
 23 18  2  0  0  0  0
M  END
>  <ID>
7572975

>  <Supplier>
ChemBridge

>  <clogP>
2.823000000000000e+000

>  <RB>
4

>  <tPSA>
5.036000000000001e+001

>  <Hacc>
2

>  <Hdon>
2

>  <LogSw>
-5.331000000000000e+000

>  <Group>
3

>  <Core>
515

$$$$
7572972
 OpenBabel03312015312D

 25 27  0  0  0  0  0  0  0  0999 V2000
    5.4042   -2.5792    0.0000 N   0  0  0  0  0  0  0  0  0  0  0  0
    4.7292   -2.1000    0.0000 C   0  0  0  0  0  0  0  0  0  0  0  0
    5.4000   -3.4042    0.0000 C   0  0  0  0  0  0  0  0  0  0  0  0
    4.9917   -1.3125    0.0000 C   0  0  0  0  0  0  0  0  0  0  0  0
    6.0667   -2.1000    0.0000 C   0  0  0  0  0  0  0  0  0  0  0  0
    3.9500   -2.3542    0.0000 C   0  0  0  0  0  0  0  0  0  0  0  0
    5.8167   -1.3125    0.0000 C   0  0  0  0  0  0  0  0  0  0  0  0
    6.8292   -5.0417    0.0000 C   0  0  0  0  0  0  0  0  0  0  0  0
    6.1125   -3.8167    0.0000 C   0  0  0  0  0  0  0  0  0  0  0  0
    3.6917   -3.1375    0.0000 S   0  0  0  0  0  0  0  0  0  0  0  0
    6.1167   -4.6375    0.0000 C   0  0  0  0  0  0  0  0  0  0  0  0
    8.2542   -2.0542    0.0000 C   0  0  0  0  0  0  0  0  0  0  0  0
    3.2792   -1.8667    0.0000 C   0  0  0  0  0  0  0  0  0  0  0  0
    2.8667   -3.1417    0.0000 C   0  0  0  0  0  0  0  0  0  0  0  0
    7.5417   -4.6292    0.0000 O   0  0  0  0  0  0  0  0  0  0  0  0
    6.8542   -2.3542    0.0000 C   0  0  0  0  0  0  0  0  0  0  0  0
    2.6167   -2.3542    0.0000 C   0  0  0  0  0  0  0  0  0  0  0  0
    8.4250   -2.8667    0.0000 O   0  0  0  0  0  0  0  0  0  0  0  0
    7.4667   -1.8042    0.0000 C   0  0  0  0  0  0  0  0  0  0  0  0
    6.8375   -5.8667    0.0000 O   0  0  0  0  0  0  0  0  0  0  0  0
    8.8667   -1.5042    0.0000 O   0  0  0  0  0  0  0  0  0  0  0  0
    4.6792   -3.8167    0.0000 C   0  0  0  0  0  0  0  0  0  0  0  0
    5.4000   -5.0542    0.0000 C   0  0  0  0  0  0  0  0  0  0  0  0
    4.6792   -4.6417    0.0000 C   0  0  0  0  0  0  0  0  0  0  0  0
    6.1167   -6.2875    0.0000 C   0  0  0  0  0  0  0  0  0  0  0  0
  2  1  1  0  0  0  0
  3  1  1  0  0  0  0
  4  2  2  0  0  0  0
  5  1  1  0  0  0  0
  6  2  1  0  0  0  0
  7  5  2  0  0  0  0
  7  4  1  0  0  0  0
  8 11  1  0  0  0  0
  9  3  1  0  0  0  0
 10  6  1  0  0  0  0
 11  9  2  0  0  0  0
 12 19  1  0  0  0  0
 13  6  2  0  0  0  0
 14 10  1  0  0  0  0
 15  8  2  0  0  0  0
 16  5  1  0  0  0  0
 17 13  1  0  0  0  0
 17 14  2  0  0  0  0
 18 12  2  0  0  0  0
 19 16  1  0  0  0  0
 20  8  1  0  0  0  0
 21 12  1  0  0  0  0
 22  3  2  0  0  0  0
 23 24  2  0  0  0  0
 23 11  1  0  0  0  0
 24 22  1  0  0  0  0
 25 20  1  0  0  0  0
M  END
>  <ID>
7572972

>  <Supplier>
ChemBridge

>  <clogP>
4.891000000000000e+000

>  <RB>
6

>  <tPSA>
6.853000000000000e+001

>  <Hacc>
5

>  <Hdon>
1

>  <LogSw>
-5.114999999999998e+000

>  <Group>
2

>  <Core>
365

$$$$
5416620
 OpenBabel03312015312D

 17 17  0  0  0  0  0  0  0  0999 V2000
   -1.2708    1.8125    0.0000 N   0  0  0  0  0  0  0  0  0  0  0  0
   -0.5958    2.2125    0.0000 C   0  0  3  0  0  0  0  0  0  0  0  0
   -1.9500    2.2083    0.0000 C   0  0  0  0  0  0  0  0  0  0  0  0
   -0.5958    2.9958    0.0000 C   0  0  0  0  0  0  0  0  0  0  0  0
    0.0875    1.8125    0.0000 C   0  0  0  0  0  0  0  0  0  0  0  0
   -3.3125    2.2125    0.0000 N   0  0  0  0  0  0  0  0  0  0  0  0
   -2.6333    1.8125    0.0000 C   0  0  0  0  0  0  0  0  0  0  0  0
    0.0875    3.3958    0.0000 C   0  0  0  0  0  0  0  0  0  0  0  0
    0.7667    2.2083    0.0000 C   0  0  0  0  0  0  0  0  0  0  0  0
    0.7667    2.9958    0.0000 C   0  0  3  0  0  0  0  0  0  0  0  0
   -1.2708    1.0208    0.0000 C   0  0  0  0  0  0  0  0  0  0  0  0
   -3.3125    3.0000    0.0000 C   0  0  0  0  0  0  0  0  0  0  0  0
   -3.9958    1.8125    0.0000 C   0  0  0  0  0  0  0  0  0  0  0  0
    1.4500    3.3958    0.0000 C   0  0  0  0  0  0  0  0  0  0  0  0
   -4.6708    2.1958    0.0000 C   0  0  0  0  0  0  0  0  0  0  0  0
   -4.0000    3.3958    0.0000 C   0  0  0  0  0  0  0  0  0  0  0  0
    2.1292    2.9958    0.0000 C   0  0  0  0  0  0  0  0  0  0  0  0
  2  1  1  0  0  0  0
  3  1  1  0  0  0  0
  4  2  1  0  0  0  0
  5  2  1  0  0  0  0
  6  7  1  0  0  0  0
  7  3  1  0  0  0  0
  8  4  1  0  0  0  0
  9  5  1  0  0  0  0
 10  9  1  0  0  0  0
 10  8  1  0  0  0  0
 11  1  1  0  0  0  0
 12  6  1  0  0  0  0
 13  6  1  0  0  0  0
 14 10  1  0  0  0  0
 15 13  1  0  0  0  0
 16 12  1  0  0  0  0
 17 14  1  0  0  0  0
M  END
>  <ID>
5416620

>  <Supplier>
ChemBridge

>  <clogP>
4.710000000000000e+000

>  <RB>
3

>  <tPSA>
6.480000000000000e+000

>  <Hacc>
2

>  <Hdon>
0

>  <LogSw>
-3.969000000000000e+000

>  <Group>
1

$$$$
7934671
 OpenBabel03312015312D

 20 21  0  0  0  0  0  0  0  0999 V2000
    4.2625    1.5083    0.0000 S   0  0  0  0  0  0  0  0  0  0  0  0
    4.0667    2.2333    0.0000 N   0  0  0  0  0  0  0  0  0  0  0  0
    5.0125    1.5083    0.0000 C   0  0  0  0  0  0  0  0  0  0  0  0
    3.3417    2.4250    0.0000 C   0  0  0  0  0  0  0  0  0  0  0  0
    3.5250    1.3750    0.0000 O   0  0  0  0  0  0  0  0  0  0  0  0
    4.3292    0.7583    0.0000 O   0  0  0  0  0  0  0  0  0  0  0  0
    3.1500    3.1500    0.0000 C   0  0  0  0  0  0  0  0  0  0  0  0
    2.4250    3.3458    0.0000 C   0  0  0  0  0  0  0  0  0  0  0  0
    2.8125    1.8958    0.0000 C   0  0  0  0  0  0  0  0  0  0  0  0
    5.3875    0.8583    0.0000 C   0  0  0  0  0  0  0  0  0  0  0  0
    5.3875    2.1583    0.0000 C   0  0  0  0  0  0  0  0  0  0  0  0
    1.8917    2.8125    0.0000 C   0  0  0  0  0  0  0  0  0  0  0  0
    6.5125    1.5083    0.0000 C   0  0  0  0  0  0  0  0  0  0  0  0
    7.2625    1.5083    0.0000 S   0  0  0  0  0  0  0  0  0  0  0  0
    2.0917    2.0875    0.0000 C   0  0  0  0  0  0  0  0  0  0  0  0
    6.1375    0.8583    0.0000 C   0  0  0  0  0  0  0  0  0  0  0  0
    6.1375    2.1583    0.0000 C   0  0  0  0  0  0  0  0  0  0  0  0
    1.1667    3.0083    0.0000 I   0  0  0  0  0  0  0  0  0  0  0  0
    3.6792    3.6833    0.0000 C   0  0  0  0  0  0  0  0  0  0  0  0
    7.6375    2.1583    0.0000 C   0  0  0  0  0  0  0  0  0  0  0  0
  2  1  1  0  0  0  0
  3  1  1  0  0  0  0
  4  2  1  0  0  0  0
  5  1  2  0  0  0  0
  6  1  2  0  0  0  0
  7  4  1  0  0  0  0
  8  7  2  0  0  0  0
  9  4  2  0  0  0  0
 10  3  1  0  0  0  0
 11  3  2  0  0  0  0
 12 15  2  0  0  0  0
 12  8  1  0  0  0  0
 13 17  2  0  0  0  0
 13 16  1  0  0  0  0
 14 13  1  0  0  0  0
 15  9  1  0  0  0  0
 16 10  2  0  0  0  0
 17 11  1  0  0  0  0
 18 12  1  0  0  0  0
 19  7  1  0  0  0  0
 20 14  1  0  0  0  0
M  END
>  <ID>
7934671

>  <Supplier>
ChemBridge

>  <clogP>
4.467000000000000e+000

>  <RB>
2

>  <tPSA>
4.616999999999997e+001

>  <Hacc>
2

>  <Hdon>
1

>  <LogSw>
-6.071000000000002e+000

>  <Group>
1

>  <Core>
516

$$$$
9037242
 OpenBabel03312015312D

 15 15  0  0  0  0  0  0  0  0999 V2000
    1.8042    1.3458    0.0000 C   0  0  0  0  0  0  0  0  0  0  0  0
    1.8042    0.5958    0.0000 C   0  0  0  0  0  0  0  0  0  0  0  0
    2.4542    1.7208    0.0000 C   0  0  0  0  0  0  0  0  0  0  0  0
    1.1625    1.7208    0.0000 C   0  0  0  0  0  0  0  0  0  0  0  0
    2.4542    0.2208    0.0000 C   0  0  0  0  0  0  0  0  0  0  0  0
    3.1042    1.3458    0.0000 C   0  0  0  0  0  0  0  0  0  0  0  0
    4.4042    0.5958    0.0000 N   0  0  0  0  0  0  0  0  0  0  0  0
    3.1042    0.5958    0.0000 C   0  0  0  0  0  0  0  0  0  0  0  0
    6.3542    0.2208    0.0000 O   0  0  0  0  0  0  0  0  0  0  0  0
    3.7542    0.2208    0.0000 C   0  0  0  0  0  0  0  0  0  0  0  0
    5.0542    0.2208    0.0000 C   0  0  0  0  0  0  0  0  0  0  0  0
    0.5125    1.3458    0.0000 C   0  0  0  0  0  0  0  0  0  0  0  0
    1.1625    2.4708    0.0000 C   0  0  0  0  0  0  0  0  0  0  0  0
    5.7042    0.5958    0.0000 C   0  0  0  0  0  0  0  0  0  0  0  0
    7.0042    0.5958    0.0000 C   0  0  0  0  0  0  0  0  0  0  0  0
  2  1  1  0  0  0  0
  3  1  2  0  0  0  0
  4  1  1  0  0  0  0
  5  2  2  0  0  0  0
  5  8  1  0  0  0  0
  6  3  1  0  0  0  0
  7 10  1  0  0  0  0
  8  6  2  0  0  0  0
  9 14  1  0  0  0  0
 10  8  1  0  0  0  0
 11  7  1  0  0  0  0
 12  4  1  0  0  0  0
 13  4  1  0  0  0  0
 14 11  1  0  0  0  0
 15  9  1  0  0  0  0
M  END
>  <ID>
9037242

>  <Supplier>
ChemBridge

>  <clogP>
3.920000000000000e+000

>  <RB>
4

>  <tPSA>
2.126000000000000e+001

>  <Hacc>
2

>  <Hdon>
1

>  <LogSw>
-2.025000000000000e+000

>  <Group>
2

$$$$
7958116
 OpenBabel03312015312D

 17 18  0  0  0  0  0  0  0  0999 V2000
    4.4250    1.2625    0.0000 C   0  0  0  0  0  0  0  0  0  0  0  0
    3.6750    1.2625    0.0000 N   0  0  0  0  0  0  0  0  0  0  0  0
    2.1750    1.2625    0.0000 N   0  0  0  0  0  0  0  0  0  0  0  0
    4.8000    1.9125    0.0000 N   0  0  0  0  0  0  0  0  0  0  0  0
    4.8000    0.6125    0.0000 O   0  0  0  0  0  0  0  0  0  0  0  0
    3.3000    0.6125    0.0000 C   0  0  0  0  0  0  0  0  0  0  0  0
    3.3000    1.9125    0.0000 C   0  0  0  0  0  0  0  0  0  0  0  0
    2.5500    1.9125    0.0000 C   0  0  0  0  0  0  0  0  0  0  0  0
    2.5500    0.6125    0.0000 C   0  0  0  0  0  0  0  0  0  0  0  0
    1.4250    1.2625    0.0000 C   0  0  0  0  0  0  0  0  0  0  0  0
    5.5500    1.9125    0.0000 C   0  0  0  0  0  0  0  0  0  0  0  0
    4.4250    2.5625    0.0000 C   0  0  0  0  0  0  0  0  0  0  0  0
    1.0500    1.9125    0.0000 C   0  0  0  0  0  0  0  0  0  0  0  0
    1.0500    0.6125    0.0000 C   0  0  0  0  0  0  0  0  0  0  0  0
    0.3000    0.6125    0.0000 C   0  0  0  0  0  0  0  0  0  0  0  0
    0.3000    1.9125    0.0000 C   0  0  0  0  0  0  0  0  0  0  0  0
   -0.0750    1.2625    0.0000 C   0  0  0  0  0  0  0  0  0  0  0  0
  2  1  1  0  0  0  0
  3  8  1  0  0  0  0
  3  9  1  0  0  0  0
  4  1  1  0  0  0  0
  5  1  2  0  0  0  0
  6  2  1  0  0  0  0
  7  2  1  0  0  0  0
  8  7  1  0  0  0  0
  9  6  1  0  0  0  0
 10  3  1  0  0  0  0
 11  4  1  0  0  0  0
 12  4  1  0  0  0  0
 13 10  2  0  0  0  0
 14 10  1  0  0  0  0
 15 14  2  0  0  0  0
 16 13  1  0  0  0  0
 16 17  2  0  0  0  0
 17 15  1  0  0  0  0
M  END
>  <ID>
7958116

>  <Supplier>
ChemBridge

>  <clogP>
1.393000000000000e+000

>  <RB>
1

>  <tPSA>
2.679000000000000e+001

>  <Hacc>
1

>  <Hdon>
0

>  <LogSw>
-2.092000000000000e+000

>  <Group>
3

>  <Core>
159

$$$$
6088068
 OpenBabel03312015312D

 15 16  0  0  0  0  0  0  0  0999 V2000
    2.2542    0.9333    0.0000 N   0  0  0  0  0  0  0  0  0  0  0  0
    2.2542    0.1000    0.0000 C   0  0  0  0  0  0  0  0  0  0  0  0
    2.9250    1.4125    0.0000 C   0  0  0  0  0  0  0  0  0  0  0  0
    1.5917    1.4208    0.0000 C   0  0  0  0  0  0  0  0  0  0  0  0
    2.9792   -0.3167    0.0000 C   0  0  0  0  0  0  0  0  0  0  0  0
    1.5417   -0.3167    0.0000 C   0  0  0  0  0  0  0  0  0  0  0  0
    2.6625    2.2125    0.0000 C   0  0  0  0  0  0  0  0  0  0  0  0
    1.8417    2.2083    0.0000 C   0  0  0  0  0  0  0  0  0  0  0  0
    2.9792   -1.1500    0.0000 C   0  0  0  0  0  0  0  0  0  0  0  0
    0.8000    1.1583    0.0000 O   0  0  0  0  0  0  0  0  0  0  0  0
    3.7125    1.1625    0.0000 O   0  0  0  0  0  0  0  0  0  0  0  0
    2.2542   -1.5625    0.0000 C   0  0  0  0  0  0  0  0  0  0  0  0
    1.5417   -1.1500    0.0000 C   0  0  0  0  0  0  0  0  0  0  0  0
    2.2542   -2.3792    0.0000 Br  0  0  0  0  0  0  0  0  0  0  0  0
    3.6917    0.0958    0.0000 C   0  0  0  0  0  0  0  0  0  0  0  0
  2  1  1  0  0  0  0
  3  1  1  0  0  0  0
  4  1  1  0  0  0  0
  5  2  2  0  0  0  0
  6  2  1  0  0  0  0
  7  3  1  0  0  0  0
  7  8  1  0  0  0  0
  8  4  1  0  0  0  0
  9  5  1  0  0  0  0
 10  4  2  0  0  0  0
 11  3  2  0  0  0  0
 12 13  1  0  0  0  0
 12  9  2  0  0  0  0
 13  6  2  0  0  0  0
 14 12  1  0  0  0  0
 15  5  1  0  0  0  0
M  END
>  <ID>
6088068

>  <Supplier>
ChemBridge

>  <clogP>
1.200000000000000e+000

>  <RB>
1

>  <tPSA>
3.738000000000000e+001

>  <Hacc>
2

>  <Hdon>
0

>  <LogSw>
-2.181000000000000e+000

>  <Group>
2

$$$$
9037247
 OpenBabel03312015312D

 24 26  0  0  0  0  0  0  0  0999 V2000
    3.7542    1.9583    0.0000 N   0  0  0  0  0  0  0  0  0  0  0  0
    3.3125    1.3458    0.0000 C   0  0  0  0  0  0  0  0  0  0  0  0
    4.4667    1.7208    0.0000 C   0  0  0  0  0  0  0  0  0  0  0  0
    3.7542    0.7458    0.0000 N   0  0  0  0  0  0  0  0  0  0  0  0
    6.3667    2.3000    0.0000 C   0  0  0  0  0  0  0  0  0  0  0  0
    4.4667    0.9708    0.0000 O   0  0  0  0  0  0  0  0  0  0  0  0
    5.7625    1.8583    0.0000 N   0  0  0  0  0  0  0  0  0  0  0  0
    5.0750    2.1625    0.0000 C   0  0  0  0  0  0  0  0  0  0  0  0
    2.5625    1.3458    0.0000 C   0  0  0  0  0  0  0  0  0  0  0  0
    7.0542    1.9958    0.0000 C   0  0  0  0  0  0  0  0  0  0  0  0
    6.2875    3.0458    0.0000 O   0  0  0  0  0  0  0  0  0  0  0  0
    2.1875    1.9958    0.0000 C   0  0  0  0  0  0  0  0  0  0  0  0
    2.1875    0.7000    0.0000 C   0  0  0  0  0  0  0  0  0  0  0  0
    1.0625    1.3458    0.0000 C   0  0  0  0  0  0  0  0  0  0  0  0
    1.4375    1.9958    0.0000 C   0  0  0  0  0  0  0  0  0  0  0  0
    1.4375    0.7000    0.0000 C   0  0  0  0  0  0  0  0  0  0  0  0
    0.3125    1.3458    0.0000 Cl  0  0  0  0  0  0  0  0  0  0  0  0
    7.6542    2.4333    0.0000 C   0  0  0  0  0  0  0  0  0  0  0  0
    5.8375    1.1125    0.0000 C   0  0  0  0  0  0  0  0  0  0  0  0
    8.3417    2.1333    0.0000 C   0  0  0  0  0  0  0  0  0  0  0  0
    7.5792    3.1833    0.0000 C   0  0  0  0  0  0  0  0  0  0  0  0
    8.9500    2.5708    0.0000 C   0  0  0  0  0  0  0  0  0  0  0  0
    8.1875    3.6208    0.0000 C   0  0  0  0  0  0  0  0  0  0  0  0
    8.8667    3.3208    0.0000 C   0  0  0  0  0  0  0  0  0  0  0  0
  2  1  1  0  0  0  0
  3  1  2  0  0  0  0
  4  2  2  0  0  0  0
  4  6  1  0  0  0  0
  5  7  1  0  0  0  0
  6  3  1  0  0  0  0
  7  8  1  0  0  0  0
  8  3  1  0  0  0  0
  9  2  1  0  0  0  0
 10  5  1  0  0  0  0
 11  5  2  0  0  0  0
 12  9  1  0  0  0  0
 13  9  2  0  0  0  0
 14 16  2  0  0  0  0
 15 12  2  0  0  0  0
 15 14  1  0  0  0  0
 16 13  1  0  0  0  0
 17 14  1  0  0  0  0
 18 10  1  0  0  0  0
 19  7  1  0  0  0  0
 20 18  1  0  0  0  0
 21 18  1  0  0  0  0
 22 20  1  0  0  0  0
 23 21  1  0  0  0  0
 24 23  1  0  0  0  0
 24 22  1  0  0  0  0
M  END
>  <ID>
9037247

>  <Supplier>
ChemBridge

>  <clogP>
3.783000000000000e+000

>  <RB>
5

>  <tPSA>
5.923000000000000e+001

>  <Hacc>
4

>  <Hdon>
0

>  <LogSw>
-4.967000000000000e+000

>  <Group>
3

>  <Core>
204

$$$$
9037245
 OpenBabel03312015312D

 25 27  0  0  0  0  0  0  0  0999 V2000
    2.7792    2.4333    0.0000 C   0  0  0  0  0  0  0  0  0  0  0  0
    2.4042    3.0833    0.0000 C   0  0  0  0  0  0  0  0  0  0  0  0
    2.4042    1.7833    0.0000 C   0  0  0  0  0  0  0  0  0  0  0  0
    1.6542    3.0833    0.0000 C   0  0  3  0  0  0  0  0  0  0  0  0
    3.5292    2.4333    0.0000 C   0  0  3  0  0  0  0  0  0  0  0  0
    2.7792    1.1333    0.0000 N   0  0  0  0  0  0  0  0  0  0  0  0
    1.2792    2.4333    0.0000 C   0  0  3  0  0  0  0  0  0  0  0  0
    3.5292    1.1333    0.0000 C   0  0  0  0  0  0  0  0  0  0  0  0
    1.2792    3.7333    0.0000 C   0  0  0  0  0  0  0  0  0  0  0  0
    1.6542    1.7833    0.0000 C   0  0  0  0  0  0  0  0  0  0  0  0
    3.9042    3.0833    0.0000 C   0  0  0  0  0  0  0  0  0  0  0  0
    3.9042    1.7833    0.0000 C   0  0  0  0  0  0  0  0  0  0  0  0
    2.7792    3.7333    0.0000 O   0  0  0  0  0  0  0  0  0  0  0  0
    4.6542    3.0833    0.0000 C   0  0  0  0  0  0  0  0  0  0  0  0
    3.9042    0.4833    0.0000 O   0  0  0  0  0  0  0  0  0  0  0  0
    1.6542    4.3792    0.0000 O   0  0  0  0  0  0  0  0  0  0  0  0
    0.5292    3.7333    0.0000 O   0  0  0  0  0  0  0  0  0  0  0  0
    5.0292    3.7333    0.0000 C   0  0  0  0  0  0  0  0  0  0  0  0
    0.5292    2.4333    0.0000 C   0  0  0  0  0  0  0  0  0  0  0  0
    3.5292    3.7333    0.0000 C   0  0  0  0  0  0  0  0  0  0  0  0
    5.7792    3.7333    0.0000 O   0  0  0  0  0  0  0  0  0  0  0  0
    3.9042    4.3792    0.0000 C   0  0  0  0  0  0  0  0  0  0  0  0
    4.6542    4.3792    0.0000 C   0  0  0  0  0  0  0  0  0  0  0  0
    0.1542    4.3792    0.0000 C   0  0  0  0  0  0  0  0  0  0  0  0
    6.1542    4.3792    0.0000 C   0  0  0  0  0  0  0  0  0  0  0  0
  2  1  1  0  0  0  0
  3  1  2  0  0  0  0
  4  2  1  0  0  0  0
  4  7  1  0  0  0  0
  5  1  1  0  0  0  0
  6  3  1  0  0  0  0
  6  8  1  0  0  0  0
  7 10  1  0  0  0  0
  8 12  1  0  0  0  0
  9  4  1  0  0  0  0
 10  3  1  0  0  0  0
 11  5  1  0  0  0  0
 12  5  1  0  0  0  0
 13  2  2  0  0  0  0
 14 11  2  0  0  0  0
 15  8  2  0  0  0  0
 16  9  2  0  0  0  0
 17  9  1  0  0  0  0
 18 14  1  0  0  0  0
 19  7  1  0  0  0  0
 20 11  1  0  0  0  0
 21 18  1  0  0  0  0
 22 20  2  0  0  0  0
 23 22  1  0  0  0  0
 23 18  2  0  0  0  0
 24 17  1  0  0  0  0
 25 21  1  0  0  0  0
M  END
>  <ID>
9037245

>  <Supplier>
ChemBridge

>  <clogP>
1.245000000000000e+000

>  <RB>
2

>  <tPSA>
8.170000000000000e+001

>  <Hacc>
5

>  <Hdon>
1

>  <LogSw>
-2.767000000000000e+000

>  <Group>
1

>  <Core>
284

$$$$
6088063
 OpenBabel03312015312D

 27 29  0  0  0  0  0  0  0  0999 V2000
   -2.2125   -0.6667    0.0000 S   0  0  0  0  0  0  0  0  0  0  0  0
   -1.4458   -0.6875    0.0000 N   0  0  0  0  0  0  0  0  0  0  0  0
    0.0792   -0.7042    0.0000 N   0  0  0  0  0  0  0  0  0  0  0  0
    0.8375   -0.7042    0.0000 C   0  0  0  0  0  0  0  0  0  0  0  0
    1.2500   -1.3500    0.0000 C   0  0  0  0  0  0  0  0  0  0  0  0
   -2.9500   -0.6667    0.0000 C   0  0  0  0  0  0  0  0  0  0  0  0
    2.3542   -0.6542    0.0000 C   0  0  0  0  0  0  0  0  0  0  0  0
   -2.2125    0.1000    0.0000 O   0  0  0  0  0  0  0  0  0  0  0  0
   -2.2125   -1.4167    0.0000 O   0  0  0  0  0  0  0  0  0  0  0  0
   -1.0833   -1.3500    0.0000 C   0  0  0  0  0  0  0  0  0  0  0  0
   -1.0708   -0.0292    0.0000 C   0  0  0  0  0  0  0  0  0  0  0  0
    2.0000   -1.3292    0.0000 C   0  0  0  0  0  0  0  0  0  0  0  0
    1.1875   -0.0292    0.0000 C   0  0  0  0  0  0  0  0  0  0  0  0
   -0.3000   -0.0292    0.0000 C   0  0  0  0  0  0  0  0  0  0  0  0
   -0.3125   -1.3500    0.0000 C   0  0  0  0  0  0  0  0  0  0  0  0
    3.1042   -0.6375    0.0000 C   0  0  0  0  0  0  0  0  0  0  0  0
    1.9500    0.0000    0.0000 C   0  0  0  0  0  0  0  0  0  0  0  0
    3.5000   -1.2792    0.0000 O   0  0  0  0  0  0  0  0  0  0  0  0
   -3.3708   -1.3292    0.0000 C   0  0  0  0  0  0  0  0  0  0  0  0
   -3.3333    0.0000    0.0000 C   0  0  0  0  0  0  0  0  0  0  0  0
    0.9042   -2.0292    0.0000 F   0  0  0  0  0  0  0  0  0  0  0  0
   -4.0958    0.0000    0.0000 C   0  0  0  0  0  0  0  0  0  0  0  0
   -4.1458   -1.3042    0.0000 C   0  0  0  0  0  0  0  0  0  0  0  0
   -4.5208   -0.6292    0.0000 C   0  0  0  0  0  0  0  0  0  0  0  0
    3.4792    0.0125    0.0000 C   0  0  0  0  0  0  0  0  0  0  0  0
   -5.2708   -0.6000    0.0000 C   0  0  0  0  0  0  0  0  0  0  0  0
    3.0875    0.6458    0.0000 C   0  0  0  0  0  0  0  0  0  0  0  0
  2  1  1  0  0  0  0
  3 14  1  0  0  0  0
  3 15  1  0  0  0  0
  4  3  1  0  0  0  0
  5  4  2  0  0  0  0
  6  1  1  0  0  0  0
  7 17  1  0  0  0  0
  7 12  2  0  0  0  0
  8  1  2  0  0  0  0
  9  1  2  0  0  0  0
 10  2  1  0  0  0  0
 11  2  1  0  0  0  0
 12  5  1  0  0  0  0
 13  4  1  0  0  0  0
 14 11  1  0  0  0  0
 15 10  1  0  0  0  0
 16  7  1  0  0  0  0
 17 13  2  0  0  0  0
 18 16  2  0  0  0  0
 19  6  2  0  0  0  0
 20  6  1  0  0  0  0
 21  5  1  0  0  0  0
 22 20  2  0  0  0  0
 23 19  1  0  0  0  0
 24 22  1  0  0  0  0
 24 23  2  0  0  0  0
 25 16  1  0  0  0  0
 26 24  1  0  0  0  0
 27 25  1  0  0  0  0
M  END
>  <ID>
6088063

>  <Supplier>
ChemBridge

>  <clogP>
3.220000000000000e+000

>  <RB>
3

>  <tPSA>
5.769000000000000e+001

>  <Hacc>
4

>  <Hdon>
0

>  <LogSw>
-4.797000000000000e+000

>  <Group>
3

>  <Core>
161

$$$$
6395322
 OpenBabel03312015312D

 28 29  0  0  0  0  0  0  0  0999 V2000
    6.1167   -4.8667    0.0000 S   0  0  0  0  0  0  0  0  0  0  0  0
    6.1167   -4.0417    0.0000 N   0  0  0  0  0  0  0  0  0  0  0  0
    6.8292   -3.6292    0.0000 C   0  0  0  0  0  0  0  0  0  0  0  0
    5.4000   -3.6292    0.0000 C   0  0  0  0  0  0  0  0  0  0  0  0
    7.5417   -4.0417    0.0000 C   0  0  0  0  0  0  0  0  0  0  0  0
    8.9667   -4.0375    0.0000 C   0  0  0  0  0  0  0  0  0  0  0  0
    4.6875   -4.0542    0.0000 C   0  0  0  0  0  0  0  0  0  0  0  0
    8.2542   -3.6292    0.0000 N   0  0  0  0  0  0  0  0  0  0  0  0
    3.9667   -3.6292    0.0000 C   0  0  0  0  0  0  0  0  0  0  0  0
    8.9625   -4.8542    0.0000 C   0  0  0  0  0  0  0  0  0  0  0  0
    6.9417   -4.8667    0.0000 O   0  0  0  0  0  0  0  0  0  0  0  0
    6.7000   -5.4500    0.0000 O   0  0  0  0  0  0  0  0  0  0  0  0
    9.6750   -3.6167    0.0000 C   0  0  0  0  0  0  0  0  0  0  0  0
    3.9667   -2.8000    0.0000 C   0  0  0  0  0  0  0  0  0  0  0  0
    5.4042   -2.8000    0.0000 C   0  0  0  0  0  0  0  0  0  0  0  0
    7.5417   -4.8667    0.0000 O   0  0  0  0  0  0  0  0  0  0  0  0
    4.6917   -2.3875    0.0000 C   0  0  0  0  0  0  0  0  0  0  0  0
   10.3875   -4.0375    0.0000 C   0  0  0  0  0  0  0  0  0  0  0  0
    9.6667   -5.2667    0.0000 C   0  0  0  0  0  0  0  0  0  0  0  0
    5.4000   -5.2750    0.0000 C   0  0  0  0  0  0  0  0  0  0  0  0
   10.3875   -4.8542    0.0000 C   0  0  0  0  0  0  0  0  0  0  0  0
    3.2417   -4.0292    0.0000 O   0  0  0  0  0  0  0  0  0  0  0  0
    9.6667   -6.0917    0.0000 Cl  0  0  0  0  0  0  0  0  0  0  0  0
    9.6667   -2.7917    0.0000 O   0  0  0  0  0  0  0  0  0  0  0  0
    3.2542   -2.3792    0.0000 O   0  0  0  0  0  0  0  0  0  0  0  0
    3.2417   -4.8542    0.0000 C   0  0  0  0  0  0  0  0  0  0  0  0
    3.2625   -1.5542    0.0000 C   0  0  0  0  0  0  0  0  0  0  0  0
    8.9500   -2.3792    0.0000 C   0  0  0  0  0  0  0  0  0  0  0  0
  2  1  1  0  0  0  0
  3  2  1  0  0  0  0
  4  2  1  0  0  0  0
  5  3  1  0  0  0  0
  6  8  1  0  0  0  0
  7  4  1  0  0  0  0
  8  5  1  0  0  0  0
  9  7  2  0  0  0  0
 10  6  2  0  0  0  0
 11  1  2  0  0  0  0
 12  1  2  0  0  0  0
 13  6  1  0  0  0  0
 14 17  2  0  0  0  0
 14  9  1  0  0  0  0
 15  4  2  0  0  0  0
 16  5  2  0  0  0  0
 17 15  1  0  0  0  0
 18 13  2  0  0  0  0
 19 10  1  0  0  0  0
 19 21  2  0  0  0  0
 20  1  1  0  0  0  0
 21 18  1  0  0  0  0
 22  9  1  0  0  0  0
 23 19  1  0  0  0  0
 24 13  1  0  0  0  0
 25 14  1  0  0  0  0
 26 22  1  0  0  0  0
 27 25  1  0  0  0  0
 28 24  1  0  0  0  0
M  END
>  <ID>
6395322

>  <Supplier>
ChemBridge

>  <clogP>
2.270000000000000e+000

>  <RB>
4

>  <tPSA>
9.417000000000000e+001

>  <Hacc>
6

>  <Hdon>
1

>  <LogSw>
-4.265000000000000e+000

>  <Group>
2

>  <Core>
084

$$$$
9037248
 OpenBabel03312015312D

 26 29  0  0  0  0  0  0  0  0999 V2000
    3.5542    2.7250    0.0000 N   0  0  0  0  0  0  0  0  0  0  0  0
    2.8667    3.0333    0.0000 C   0  0  0  0  0  0  0  0  0  0  0  0
    3.4750    1.9833    0.0000 C   0  0  0  0  0  0  0  0  0  0  0  0
    2.3667    2.4750    0.0000 C   0  0  3  0  0  0  0  0  0  0  0  0
    2.7417    1.8250    0.0000 C   0  0  3  0  0  0  0  0  0  0  0  0
    4.2042    3.1083    0.0000 C   0  0  0  0  0  0  0  0  0  0  0  0
    8.1000    3.1083    0.0000 C   0  0  0  0  0  0  0  0  0  0  0  0
    5.5000    3.1083    0.0000 C   0  0  0  0  0  0  0  0  0  0  0  0
    4.8500    2.7250    0.0000 C   0  0  0  0  0  0  0  0  0  0  0  0
    7.4500    2.7250    0.0000 C   0  0  0  0  0  0  0  0  0  0  0  0
    4.0292    1.4833    0.0000 O   0  0  0  0  0  0  0  0  0  0  0  0
    2.7125    3.7708    0.0000 O   0  0  0  0  0  0  0  0  0  0  0  0
    6.1500    2.7250    0.0000 N   0  0  0  0  0  0  0  0  0  0  0  0
    8.1000    3.8583    0.0000 C   0  0  0  0  0  0  0  0  0  0  0  0
    6.8000    3.1083    0.0000 C   0  0  0  0  0  0  0  0  0  0  0  0
    8.7500    2.7250    0.0000 O   0  0  0  0  0  0  0  0  0  0  0  0
    8.7500    4.2167    0.0000 O   0  0  0  0  0  0  0  0  0  0  0  0
    5.5000    3.8583    0.0000 O   0  0  0  0  0  0  0  0  0  0  0  0
    7.4500    4.2167    0.0000 C   0  0  0  0  0  0  0  0  0  0  0  0
    1.2417    1.8250    0.0000 C   0  0  0  0  0  0  0  0  0  0  0  0
    1.6167    1.1750    0.0000 C   0  0  0  0  0  0  0  0  0  0  0  0
    6.8000    3.8583    0.0000 C   0  0  0  0  0  0  0  0  0  0  0  0
    1.6167    2.4750    0.0000 C   0  0  0  0  0  0  0  0  0  0  0  0
    2.3667    1.1750    0.0000 C   0  0  0  0  0  0  0  0  0  0  0  0
    9.4000    3.1083    0.0000 C   0  0  0  0  0  0  0  0  0  0  0  0
    9.4000    3.8583    0.0000 C   0  0  0  0  0  0  0  0  0  0  0  0
  2  1  1  0  0  0  0
  3  1  1  0  0  0  0
  4  2  1  0  0  0  0
  4  5  1  0  0  0  0
  5  3  1  0  0  0  0
  6  1  1  0  0  0  0
  7 10  2  0  0  0  0
  8  9  1  0  0  0  0
  9  6  1  0  0  0  0
 10 15  1  0  0  0  0
 11  3  2  0  0  0  0
 12  2  2  0  0  0  0
 13  8  1  0  0  0  0
 14 19  2  0  0  0  0
 14  7  1  0  0  0  0
 15 13  1  0  0  0  0
 16  7  1  0  0  0  0
 17 14  1  0  0  0  0
 18  8  2  0  0  0  0
 19 22  1  0  0  0  0
 20 23  1  0  0  0  0
 20 21  2  0  0  0  0
 21 24  1  0  0  0  0
 22 15  2  0  0  0  0
 23  4  1  0  0  0  0
 24  5  1  0  0  0  0
 25 16  1  0  0  0  0
 26 17  1  0  0  0  0
 26 25  1  0  0  0  0
M  END
>  <ID>
9037248

>  <Supplier>
ChemBridge

>  <clogP>
1.488000000000000e+000

>  <RB>
4

>  <tPSA>
8.494000000000000e+001

>  <Hacc>
5

>  <Hdon>
1

>  <LogSw>
-3.069000000000000e+000

>  <Group>
2

>  <Core>
311

$$$$
9037249
 OpenBabel03312015312D

 21 23  0  0  0  0  0  0  0  0999 V2000
   -1.3458    0.9333    0.0000 N   0  0  0  0  0  0  0  0  0  0  0  0
   -0.9708    0.2875    0.0000 C   0  0  0  0  0  0  0  0  0  0  0  0
   -0.1583    1.1875    0.0000 C   0  0  3  0  0  0  0  0  0  0  0  0
    0.4917    1.5625    0.0000 C   0  0  0  0  0  0  0  0  0  0  0  0
    1.1417    1.1875    0.0000 N   0  0  0  0  0  0  0  0  0  0  0  0
   -0.8375    1.4958    0.0000 C   0  0  0  0  0  0  0  0  0  0  0  0
    1.7917    1.5625    0.0000 C   0  0  0  0  0  0  0  0  0  0  0  0
   -0.2333    0.4458    0.0000 C   0  0  0  0  0  0  0  0  0  0  0  0
    2.4417    1.1875    0.0000 N   0  0  0  0  0  0  0  0  0  0  0  0
    1.7917    2.3125    0.0000 N   0  0  0  0  0  0  0  0  0  0  0  0
   -2.0875    1.0125    0.0000 C   0  0  0  0  0  0  0  0  0  0  0  0
   -1.2708   -0.4000    0.0000 O   0  0  0  0  0  0  0  0  0  0  0  0
    0.4917    2.3125    0.0000 O   0  0  0  0  0  0  0  0  0  0  0  0
    3.0917    2.3125    0.0000 C   0  0  0  0  0  0  0  0  0  0  0  0
    2.4417    2.6875    0.0000 C   0  0  0  0  0  0  0  0  0  0  0  0
    3.0917    1.5625    0.0000 C   0  0  0  0  0  0  0  0  0  0  0  0
   -2.3958    1.7000    0.0000 C   0  0  0  0  0  0  0  0  0  0  0  0
   -2.5333    0.4083    0.0000 C   0  0  0  0  0  0  0  0  0  0  0  0
   -3.1375    1.7750    0.0000 C   0  0  0  0  0  0  0  0  0  0  0  0
   -3.2750    0.4833    0.0000 C   0  0  0  0  0  0  0  0  0  0  0  0
   -3.5833    1.1708    0.0000 C   0  0  0  0  0  0  0  0  0  0  0  0
  2  1  1  0  0  0  0
  3  6  1  0  0  0  0
  4  3  1  0  0  0  0
  5  4  1  0  0  0  0
  6  1  1  0  0  0  0
  7  5  1  0  0  0  0
  8  2  1  0  0  0  0
  8  3  1  0  0  0  0
  9  7  1  0  0  0  0
 10  7  2  0  0  0  0
 11  1  1  0  0  0  0
 12  2  2  0  0  0  0
 13  4  2  0  0  0  0
 14 15  2  0  0  0  0
 14 16  1  0  0  0  0
 15 10  1  0  0  0  0
 16  9  2  0  0  0  0
 17 11  2  0  0  0  0
 18 11  1  0  0  0  0
 19 17  1  0  0  0  0
 20 18  2  0  0  0  0
 21 20  1  0  0  0  0
 21 19  2  0  0  0  0
M  END
>  <ID>
9037249

>  <Supplier>
ChemBridge

>  <clogP>
1.342000000000000e+000

>  <RB>
3

>  <tPSA>
7.519000000000000e+001

>  <Hacc>
4

>  <Hdon>
1

>  <LogSw>
-2.405000000000000e+000

>  <Group>
3

>  <Core>
124

$$$$
7994129
 OpenBabel03312015312D

 16 18  0  0  0  0  0  0  0  0999 V2000
    1.9542    2.7958    0.0000 N   0  0  0  0  0  0  0  0  0  0  0  0
    1.9542    2.0458    0.0000 C   0  0  0  0  0  0  0  0  0  0  0  0
    3.1042    2.4208    0.0000 C   0  0  0  0  0  0  0  0  0  0  0  0
    2.6667    1.8125    0.0000 S   0  0  0  0  0  0  0  0  0  0  0  0
    2.6667    3.0250    0.0000 N   0  0  0  0  0  0  0  0  0  0  0  0
    1.2417    1.8125    0.0000 N   0  0  0  0  0  0  0  0  0  0  0  0
    3.8542    2.4208    0.0000 C   0  0  0  0  0  0  0  0  0  0  0  0
    0.8000    2.4208    0.0000 N   0  0  0  0  0  0  0  0  0  0  0  0
    1.2417    3.0250    0.0000 C   0  0  0  0  0  0  0  0  0  0  0  0
    4.2292    1.7708    0.0000 C   0  0  0  0  0  0  0  0  0  0  0  0
    4.2292    3.0708    0.0000 C   0  0  0  0  0  0  0  0  0  0  0  0
    3.8542    1.1208    0.0000 O   0  0  0  0  0  0  0  0  0  0  0  0
    4.9792    1.7708    0.0000 C   0  0  0  0  0  0  0  0  0  0  0  0
    4.2292    0.4708    0.0000 C   0  0  0  0  0  0  0  0  0  0  0  0
    4.9792    3.0708    0.0000 C   0  0  0  0  0  0  0  0  0  0  0  0
    5.3542    2.4208    0.0000 C   0  0  0  0  0  0  0  0  0  0  0  0
  2  1  1  0  0  0  0
  3  5  2  0  0  0  0
  4  2  1  0  0  0  0
  4  3  1  0  0  0  0
  5  1  1  0  0  0  0
  6  2  2  0  0  0  0
  6  8  1  0  0  0  0
  7  3  1  0  0  0  0
  8  9  2  0  0  0  0
  9  1  1  0  0  0  0
 10  7  2  0  0  0  0
 11  7  1  0  0  0  0
 12 10  1  0  0  0  0
 13 10  1  0  0  0  0
 13 16  2  0  0  0  0
 14 12  1  0  0  0  0
 15 11  2  0  0  0  0
 16 15  1  0  0  0  0
M  END
>  <ID>
7994129

>  <Supplier>
ChemBridge

>  <clogP>
1.120000000000000e+000

>  <RB>
1

>  <tPSA>
5.231000000000002e+001

>  <Hacc>
4

>  <Hdon>
0

>  <LogSw>
-1.851000000000000e+000

>  <Group>
2

>  <Core>
267

$$$$
7994128
 OpenBabel03312015312D

 25 27  0  0  0  0  0  0  0  0999 V2000
    4.3625    2.4125    0.0000 C   0  0  0  0  0  0  0  0  0  0  0  0
    3.9875    1.7625    0.0000 C   0  0  0  0  0  0  0  0  0  0  0  0
    4.3625    1.1125    0.0000 N   0  0  0  0  0  0  0  0  0  0  0  0
    5.4875    1.7625    0.0000 N   0  0  0  0  0  0  0  0  0  0  0  0
    3.8625    2.9708    0.0000 N   0  0  0  0  0  0  0  0  0  0  0  0
    5.1125    1.1125    0.0000 C   0  0  0  0  0  0  0  0  0  0  0  0
    5.1125    2.4125    0.0000 C   0  0  0  0  0  0  0  0  0  0  0  0
    3.2542    1.9208    0.0000 N   0  0  0  0  0  0  0  0  0  0  0  0
    3.1750    2.6708    0.0000 C   0  0  0  0  0  0  0  0  0  0  0  0
    2.5250    3.0458    0.0000 C   0  0  0  0  0  0  0  0  0  0  0  0
    1.8750    2.6708    0.0000 N   0  0  0  0  0  0  0  0  0  0  0  0
    4.0167    3.7083    0.0000 C   0  0  0  0  0  0  0  0  0  0  0  0
    5.4875    0.4708    0.0000 O   0  0  0  0  0  0  0  0  0  0  0  0
    0.5792    1.9208    0.0000 N   0  0  0  0  0  0  0  0  0  0  0  0
    5.4875    3.0625    0.0000 O   0  0  0  0  0  0  0  0  0  0  0  0
    3.9875    0.4708    0.0000 C   0  0  0  0  0  0  0  0  0  0  0  0
    6.2375    1.7625    0.0000 C   0  0  0  0  0  0  0  0  0  0  0  0
    3.4542    4.2042    0.0000 C   0  0  0  0  0  0  0  0  0  0  0  0
    3.6167    4.9375    0.0000 O   0  0  0  0  0  0  0  0  0  0  0  0
    1.8750    1.9208    0.0000 C   0  0  0  0  0  0  0  0  0  0  0  0
    1.2292    3.0458    0.0000 C   0  0  0  0  0  0  0  0  0  0  0  0
    0.5792    2.6708    0.0000 C   0  0  0  0  0  0  0  0  0  0  0  0
    1.2292    1.5458    0.0000 C   0  0  0  0  0  0  0  0  0  0  0  0
   -0.0708    1.5458    0.0000 C   0  0  0  0  0  0  0  0  0  0  0  0
    2.7417    3.9833    0.0000 C   0  0  0  0  0  0  0  0  0  0  0  0
  2  1  2  0  0  0  0
  3  2  1  0  0  0  0
  3  6  1  0  0  0  0
  4  7  1  0  0  0  0
  5  1  1  0  0  0  0
  6  4  1  0  0  0  0
  7  1  1  0  0  0  0
  8  2  1  0  0  0  0
  8  9  2  0  0  0  0
  9  5  1  0  0  0  0
 10  9  1  0  0  0  0
 11 10  1  0  0  0  0
 12  5  1  0  0  0  0
 13  6  2  0  0  0  0
 14 22  1  0  0  0  0
 14 23  1  0  0  0  0
 15  7  2  0  0  0  0
 16  3  1  0  0  0  0
 17  4  1  0  0  0  0
 18 12  1  0  0  0  0
 19 18  2  0  0  0  0
 20 11  1  0  0  0  0
 21 11  1  0  0  0  0
 22 21  1  0  0  0  0
 23 20  1  0  0  0  0
 24 14  1  0  0  0  0
 25 18  1  0  0  0  0
M  END
>  <ID>
7994128

>  <Supplier>
ChemBridge

>  <clogP>
-2.300000000000000e-001

>  <RB>
4

>  <tPSA>
8.537000000000001e+001

>  <Hacc>
6

>  <Hdon>
0

>  <LogSw>
-2.854000000000000e+000

>  <Group>
2

>  <Core>
249

$$$$
7173928
 OpenBabel03312015312D

 28 30  0  0  0  0  0  0  0  0999 V2000
    4.6625   -2.6750    0.0000 S   0  0  0  0  0  0  0  0  0  0  0  0
    4.6625   -3.5000    0.0000 N   0  0  0  0  0  0  0  0  0  0  0  0
    7.5125   -5.1500    0.0000 C   0  0  0  0  0  0  0  0  0  0  0  0
    8.2250   -4.7292    0.0000 N   0  0  0  0  0  0  0  0  0  0  0  0
    5.0750   -1.9625    0.0000 O   0  0  0  0  0  0  0  0  0  0  0  0
    5.4875   -2.6750    0.0000 O   0  0  0  0  0  0  0  0  0  0  0  0
    5.3750   -3.9125    0.0000 C   0  0  0  0  0  0  0  0  0  0  0  0
    6.8000   -4.7375    0.0000 C   0  0  0  0  0  0  0  0  0  0  0  0
    3.9500   -3.9125    0.0000 C   0  0  0  0  0  0  0  0  0  0  0  0
    7.5125   -5.9750    0.0000 O   0  0  0  0  0  0  0  0  0  0  0  0
    6.0875   -3.4917    0.0000 C   0  0  0  0  0  0  0  0  0  0  0  0
    5.3750   -4.7375    0.0000 C   0  0  0  0  0  0  0  0  0  0  0  0
    6.8000   -3.9125    0.0000 C   0  0  0  0  0  0  0  0  0  0  0  0
    6.0792   -5.1500    0.0000 C   0  0  0  0  0  0  0  0  0  0  0  0
    3.9500   -2.2625    0.0000 C   0  0  0  0  0  0  0  0  0  0  0  0
    8.4292   -3.9167    0.0000 C   0  0  0  0  0  0  0  0  0  0  0  0
    3.2375   -3.5000    0.0000 C   0  0  0  0  0  0  0  0  0  0  0  0
    2.5250   -3.9125    0.0000 C   0  0  0  0  0  0  0  0  0  0  0  0
    3.2375   -2.6750    0.0000 C   0  0  0  0  0  0  0  0  0  0  0  0
    7.7875   -3.3792    0.0000 C   0  0  0  0  0  0  0  0  0  0  0  0
    9.2375   -3.7542    0.0000 C   0  0  0  0  0  0  0  0  0  0  0  0
    2.5292   -2.2625    0.0000 C   0  0  0  0  0  0  0  0  0  0  0  0
    1.8125   -3.5000    0.0000 C   0  0  0  0  0  0  0  0  0  0  0  0
    7.8042   -2.5542    0.0000 C   0  0  0  0  0  0  0  0  0  0  0  0
    9.6167   -3.0167    0.0000 C   0  0  0  0  0  0  0  0  0  0  0  0
    9.2792   -2.2625    0.0000 C   0  0  0  0  0  0  0  0  0  0  0  0
    1.8125   -2.6750    0.0000 C   0  0  0  0  0  0  0  0  0  0  0  0
    8.4667   -2.0542    0.0000 C   0  0  0  0  0  0  0  0  0  0  0  0
  2  1  1  0  0  0  0
  3  8  1  0  0  0  0
  4  3  1  0  0  0  0
  5  1  2  0  0  0  0
  6  1  2  0  0  0  0
  7  2  1  0  0  0  0
  8 14  2  0  0  0  0
  9  2  1  0  0  0  0
 10  3  2  0  0  0  0
 11  7  1  0  0  0  0
 12  7  2  0  0  0  0
 13 11  2  0  0  0  0
 13  8  1  0  0  0  0
 14 12  1  0  0  0  0
 15  1  1  0  0  0  0
 16  4  1  0  0  0  0
 17  9  1  0  0  0  0
 18 17  1  0  0  0  0
 19 17  2  0  0  0  0
 20 16  1  0  0  0  0
 21 16  1  0  0  0  0
 22 19  1  0  0  0  0
 23 18  2  0  0  0  0
 24 20  1  0  0  0  0
 25 21  1  0  0  0  0
 26 25  1  0  0  0  0
 26 28  1  0  0  0  0
 27 22  2  0  0  0  0
 27 23  1  0  0  0  0
 28 24  1  0  0  0  0
M  END
>  <ID>
7173928

>  <Supplier>
ChemBridge

>  <clogP>
4.280000000000000e+000

>  <RB>
5

>  <tPSA>
6.647999999999998e+001

>  <Hacc>
3

>  <Hdon>
1

>  <LogSw>
-5.775000000000000e+000

>  <Group>
3

>  <Core>
154

$$$$
5334128
 OpenBabel03312015312D

 16 17  0  0  0  0  0  0  0  0999 V2000
    0.8000    0.7208    0.0000 C   0  0  0  0  0  0  0  0  0  0  0  0
    0.1167    1.1000    0.0000 C   0  0  0  0  0  0  0  0  0  0  0  0
    0.8000   -0.0542    0.0000 O   0  0  0  0  0  0  0  0  0  0  0  0
    1.4542   -0.4500    0.0000 C   0  0  0  0  0  0  0  0  0  0  0  0
    0.0167    1.8833    0.0000 S   0  0  0  0  0  0  0  0  0  0  0  0
    2.1542   -0.0542    0.0000 C   0  0  0  0  0  0  0  0  0  0  0  0
   -0.6000    0.7833    0.0000 C   0  0  0  0  0  0  0  0  0  0  0  0
    1.4792    1.1208    0.0000 O   0  0  0  0  0  0  0  0  0  0  0  0
   -0.7500    2.0458    0.0000 C   0  0  0  0  0  0  0  0  0  0  0  0
   -1.1333    1.3500    0.0000 C   0  0  0  0  0  0  0  0  0  0  0  0
    2.8167   -0.4500    0.0000 C   0  0  0  0  0  0  0  0  0  0  0  0
    1.4542   -1.2292    0.0000 C   0  0  0  0  0  0  0  0  0  0  0  0
    2.1292   -1.6042    0.0000 C   0  0  0  0  0  0  0  0  0  0  0  0
    2.1875    0.7125    0.0000 C   0  0  0  0  0  0  0  0  0  0  0  0
    2.8167   -1.2292    0.0000 C   0  0  0  0  0  0  0  0  0  0  0  0
    3.4792   -0.0542    0.0000 C   0  0  0  0  0  0  0  0  0  0  0  0
  2  1  1  0  0  0  0
  3  1  1  0  0  0  0
  4  3  1  0  0  0  0
  5  2  1  0  0  0  0
  6  4  1  0  0  0  0
  7  2  2  0  0  0  0
  8  1  2  0  0  0  0
  9  5  1  0  0  0  0
  9 10  2  0  0  0  0
 10  7  1  0  0  0  0
 11  6  2  0  0  0  0
 12  4  2  0  0  0  0
 13 12  1  0  0  0  0
 14  6  1  0  0  0  0
 15 13  2  0  0  0  0
 15 11  1  0  0  0  0
 16 11  1  0  0  0  0
M  END
>  <ID>
5334128

>  <Supplier>
ChemBridge

>  <clogP>
4.290000000000000e+000

>  <RB>
3

>  <tPSA>
2.630000000000000e+001

>  <Hacc>
2

>  <Hdon>
0

>  <LogSw>
-4.559000000000000e+000

>  <Group>
2

>  <Core>
266

$$$$
9069218
 OpenBabel03312015312D

 21 22  0  0  0  0  0  0  0  0999 V2000
    3.9750    2.5000    0.0000 S   0  0  0  0  0  0  0  0  0  0  0  0
    4.6250    2.1250    0.0000 C   0  0  0  0  0  0  0  0  0  0  0  0
    4.6250    1.3750    0.0000 C   0  0  0  0  0  0  0  0  0  0  0  0
    3.4417    1.9708    0.0000 N   0  0  0  0  0  0  0  0  0  0  0  0
    5.2750    2.5000    0.0000 C   0  0  0  0  0  0  0  0  0  0  0  0
    4.4042    3.1125    0.0000 O   0  0  0  0  0  0  0  0  0  0  0  0
    3.4000    2.9833    0.0000 O   0  0  0  0  0  0  0  0  0  0  0  0
    5.2750    1.0000    0.0000 C   0  0  0  0  0  0  0  0  0  0  0  0
    5.9250    2.1250    0.0000 C   0  0  0  0  0  0  0  0  0  0  0  0
    5.9250    1.3750    0.0000 C   0  0  0  0  0  0  0  0  0  0  0  0
    2.7167    2.1625    0.0000 C   0  0  0  0  0  0  0  0  0  0  0  0
    5.2750    3.2500    0.0000 O   0  0  0  0  0  0  0  0  0  0  0  0
    1.2667    2.5500    0.0000 C   0  0  0  0  0  0  0  0  0  0  0  0
    0.5417    2.7458    0.0000 F   0  0  0  0  0  0  0  0  0  0  0  0
    2.1917    1.6333    0.0000 C   0  0  0  0  0  0  0  0  0  0  0  0
    2.5250    2.8958    0.0000 C   0  0  0  0  0  0  0  0  0  0  0  0
    1.8042    3.0833    0.0000 C   0  0  0  0  0  0  0  0  0  0  0  0
    1.4667    1.8250    0.0000 C   0  0  0  0  0  0  0  0  0  0  0  0
    5.2750    0.2500    0.0000 C   0  0  0  0  0  0  0  0  0  0  0  0
    6.5750    1.0000    0.0000 C   0  0  0  0  0  0  0  0  0  0  0  0
    5.9250    3.6250    0.0000 C   0  0  0  0  0  0  0  0  0  0  0  0
  2  1  1  0  0  0  0
  3  2  1  0  0  0  0
  4  1  1  0  0  0  0
  5  2  2  0  0  0  0
  6  1  2  0  0  0  0
  7  1  2  0  0  0  0
  8  3  2  0  0  0  0
  9  5  1  0  0  0  0
 10  9  2  0  0  0  0
 10  8  1  0  0  0  0
 11  4  1  0  0  0  0
 12  5  1  0  0  0  0
 13 17  1  0  0  0  0
 13 18  2  0  0  0  0
 14 13  1  0  0  0  0
 15 11  2  0  0  0  0
 16 11  1  0  0  0  0
 17 16  2  0  0  0  0
 18 15  1  0  0  0  0
 19  8  1  0  0  0  0
 20 10  1  0  0  0  0
 21 12  1  0  0  0  0
M  END
>  <ID>
9069218

>  <Supplier>
ChemBridge

>  <clogP>
3.545000000000000e+000

>  <RB>
2

>  <tPSA>
5.540000000000000e+001

>  <Hacc>
3

>  <Hdon>
1

>  <LogSw>
-4.879000000000000e+000

>  <Group>
1

>  <Core>
516

$$$$
7926271
 OpenBabel03312015312D

 30 32  0  0  0  0  0  0  0  0999 V2000
   12.6500    3.0708    0.0000 N   0  0  0  0  0  0  0  0  0  0  0  0
   11.9625    2.7708    0.0000 C   0  0  0  0  0  0  0  0  0  0  0  0
   13.1500    2.5083    0.0000 C   0  0  0  0  0  0  0  0  0  0  0  0
   12.0417    2.0208    0.0000 N   0  0  0  0  0  0  0  0  0  0  0  0
   12.7750    1.8583    0.0000 N   0  0  0  0  0  0  0  0  0  0  0  0
   11.3125    3.1458    0.0000 C   0  0  0  0  0  0  0  0  0  0  0  0
   10.6625    2.7708    0.0000 C   0  0  0  0  0  0  0  0  0  0  0  0
   13.8917    2.5875    0.0000 S   0  0  0  0  0  0  0  0  0  0  0  0
   10.0167    3.1458    0.0000 N   0  0  0  0  0  0  0  0  0  0  0  0
   15.0792    2.0583    0.0000 C   0  0  0  0  0  0  0  0  0  0  0  0
   14.3375    1.9833    0.0000 C   0  0  0  0  0  0  0  0  0  0  0  0
    9.3667    2.7708    0.0000 C   0  0  0  0  0  0  0  0  0  0  0  0
   10.6625    2.0208    0.0000 O   0  0  0  0  0  0  0  0  0  0  0  0
    8.7167    3.1458    0.0000 C   0  0  0  0  0  0  0  0  0  0  0  0
   12.8042    3.8000    0.0000 C   0  0  0  0  0  0  0  0  0  0  0  0
   15.3875    2.7458    0.0000 O   0  0  0  0  0  0  0  0  0  0  0  0
   15.5250    1.4583    0.0000 C   0  0  0  0  0  0  0  0  0  0  0  0
   13.5167    4.0292    0.0000 C   0  0  0  0  0  0  0  0  0  0  0  0
   13.6750    4.7625    0.0000 C   0  0  0  0  0  0  0  0  0  0  0  0
    8.0667    2.7708    0.0000 C   0  0  0  0  0  0  0  0  0  0  0  0
    7.4167    3.1458    0.0000 O   0  0  0  0  0  0  0  0  0  0  0  0
    8.7167    1.6375    0.0000 C   0  0  0  0  0  0  0  0  0  0  0  0
    9.3667    2.0208    0.0000 C   0  0  0  0  0  0  0  0  0  0  0  0
   15.2167    0.7708    0.0000 C   0  0  0  0  0  0  0  0  0  0  0  0
   16.2667    1.5333    0.0000 C   0  0  0  0  0  0  0  0  0  0  0  0
    8.0667    2.0208    0.0000 C   0  0  0  0  0  0  0  0  0  0  0  0
    6.7667    2.7708    0.0000 C   0  0  0  0  0  0  0  0  0  0  0  0
   15.6542    0.1625    0.0000 C   0  0  0  0  0  0  0  0  0  0  0  0
   16.7125    0.9250    0.0000 C   0  0  0  0  0  0  0  0  0  0  0  0
   16.4042    0.2375    0.0000 C   0  0  0  0  0  0  0  0  0  0  0  0
  2  1  1  0  0  0  0
  3  1  1  0  0  0  0
  4  2  2  0  0  0  0
  5  3  2  0  0  0  0
  5  4  1  0  0  0  0
  6  2  1  0  0  0  0
  7  6  1  0  0  0  0
  8  3  1  0  0  0  0
  9  7  1  0  0  0  0
 10 11  1  0  0  0  0
 11  8  1  0  0  0  0
 12  9  1  0  0  0  0
 13  7  2  0  0  0  0
 14 12  2  0  0  0  0
 15  1  1  0  0  0  0
 16 10  2  0  0  0  0
 17 10  1  0  0  0  0
 18 15  1  0  0  0  0
 19 18  2  0  0  0  0
 20 14  1  0  0  0  0
 21 20  1  0  0  0  0
 22 23  2  0  0  0  0
 23 12  1  0  0  0  0
 24 17  2  0  0  0  0
 25 17  1  0  0  0  0
 26 22  1  0  0  0  0
 26 20  2  0  0  0  0
 27 21  1  0  0  0  0
 28 24  1  0  0  0  0
 29 25  2  0  0  0  0
 30 29  1  0  0  0  0
 30 28  2  0  0  0  0
M  END
>  <ID>
7926271

>  <Supplier>
ChemBridge

>  <clogP>
1.963000000000000e+000

>  <RB>
9

>  <tPSA>
8.611000000000001e+001

>  <Hacc>
5

>  <Hdon>
1

>  <LogSw>
-3.956000000000000e+000

>  <Group>
1

>  <Core>
027

$$$$
5334123
 OpenBabel03312015312D

 18 19  0  0  0  0  0  0  0  0999 V2000
    1.4292   -1.1292    0.0000 N   0  0  0  0  0  0  0  0  0  0  0  0
    0.7792   -0.7542    0.0000 C   0  0  0  0  0  0  0  0  0  0  0  0
   -2.4458   -1.4000    0.0000 C   0  0  0  0  0  0  0  0  0  0  0  0
   -2.3708   -2.1500    0.0000 C   0  0  0  0  0  0  0  0  0  0  0  0
    0.1292   -1.1292    0.0000 C   0  0  0  0  0  0  0  0  0  0  0  0
    0.7792   -0.0042    0.0000 O   0  0  0  0  0  0  0  0  0  0  0  0
   -1.8458   -0.9542    0.0000 C   0  0  0  0  0  0  0  0  0  0  0  0
   -0.5458   -0.8292    0.0000 O   0  0  0  0  0  0  0  0  0  0  0  0
   -1.6833   -2.4500    0.0000 C   0  0  0  0  0  0  0  0  0  0  0  0
   -1.1500   -1.2667    0.0000 C   0  0  0  0  0  0  0  0  0  0  0  0
   -2.9708   -2.5875    0.0000 Br  0  0  0  0  0  0  0  0  0  0  0  0
   -1.0708   -2.0042    0.0000 C   0  0  0  0  0  0  0  0  0  0  0  0
    2.0792   -0.7542    0.0000 C   0  0  0  0  0  0  0  0  0  0  0  0
    1.4292   -1.8792    0.0000 C   0  0  0  0  0  0  0  0  0  0  0  0
   -3.1333   -1.1000    0.0000 C   0  0  0  0  0  0  0  0  0  0  0  0
    2.7292   -1.1375    0.0000 C   0  0  0  0  0  0  0  0  0  0  0  0
    2.0792   -2.2542    0.0000 C   0  0  0  0  0  0  0  0  0  0  0  0
    2.7292   -1.8875    0.0000 C   0  0  0  0  0  0  0  0  0  0  0  0
  2  1  1  0  0  0  0
  3  7  2  0  0  0  0
  3  4  1  0  0  0  0
  4  9  2  0  0  0  0
  5  2  1  0  0  0  0
  6  2  2  0  0  0  0
  7 10  1  0  0  0  0
  8  5  1  0  0  0  0
  9 12  1  0  0  0  0
 10  8  1  0  0  0  0
 11  4  1  0  0  0  0
 12 10  2  0  0  0  0
 13  1  1  0  0  0  0
 14  1  1  0  0  0  0
 15  3  1  0  0  0  0
 16 13  1  0  0  0  0
 17 14  1  0  0  0  0
 18 17  1  0  0  0  0
 18 16  1  0  0  0  0
M  END
>  <ID>
5334123

>  <Supplier>
ChemBridge

>  <clogP>
3.660000000000000e+000

>  <RB>
3

>  <tPSA>
2.954000000000000e+001

>  <Hacc>
2

>  <Hdon>
0

>  <LogSw>
-4.603000000000000e+000

>  <Group>
3

>  <Core>
315

$$$$
7994120
 OpenBabel03312015312D

 23 24  0  0  0  0  0  0  0  0999 V2000
    2.6375    1.3583    0.0000 S   0  0  0  0  0  0  0  0  0  0  0  0
    6.0125    2.0083    0.0000 C   0  0  0  0  0  0  0  0  0  0  0  0
    5.6375    1.3583    0.0000 N   0  0  0  0  0  0  0  0  0  0  0  0
    6.7625    2.0083    0.0000 C   0  0  0  0  0  0  0  0  0  0  0  0
    3.3875    1.3583    0.0000 C   0  0  0  0  0  0  0  0  0  0  0  0
    1.8917    1.2250    0.0000 O   0  0  0  0  0  0  0  0  0  0  0  0
    2.7000    0.6083    0.0000 O   0  0  0  0  0  0  0  0  0  0  0  0
    2.4417    2.0833    0.0000 N   0  0  0  0  0  0  0  0  0  0  0  0
    5.6375    2.6583    0.0000 O   0  0  0  0  0  0  0  0  0  0  0  0
    7.1375    1.3583    0.0000 C   0  0  0  0  0  0  0  0  0  0  0  0
    3.7625    0.7083    0.0000 C   0  0  0  0  0  0  0  0  0  0  0  0
    3.7625    2.0083    0.0000 C   0  0  0  0  0  0  0  0  0  0  0  0
    4.8875    1.3583    0.0000 C   0  0  0  0  0  0  0  0  0  0  0  0
    1.5250    2.9958    0.0000 C   0  0  0  0  0  0  0  0  0  0  0  0
    0.8000    3.1958    0.0000 C   0  0  0  0  0  0  0  0  0  0  0  0
    4.5125    0.7083    0.0000 C   0  0  0  0  0  0  0  0  0  0  0  0
    4.5125    2.0083    0.0000 C   0  0  0  0  0  0  0  0  0  0  0  0
    1.7167    2.2750    0.0000 C   0  0  0  0  0  0  0  0  0  0  0  0
    7.1375    2.6583    0.0000 C   0  0  0  0  0  0  0  0  0  0  0  0
    6.7625    0.7083    0.0000 C   0  0  0  0  0  0  0  0  0  0  0  0
    7.8875    1.3583    0.0000 C   0  0  0  0  0  0  0  0  0  0  0  0
    7.8875    2.6583    0.0000 C   0  0  0  0  0  0  0  0  0  0  0  0
    8.2625    2.0083    0.0000 C   0  0  0  0  0  0  0  0  0  0  0  0
  2  3  1  0  0  0  0
  3 13  1  0  0  0  0
  4  2  1  0  0  0  0
  5  1  1  0  0  0  0
  6  1  2  0  0  0  0
  7  1  2  0  0  0  0
  8  1  1  0  0  0  0
  9  2  2  0  0  0  0
 10  4  2  0  0  0  0
 11  5  2  0  0  0  0
 12  5  1  0  0  0  0
 13 17  1  0  0  0  0
 14 18  1  0  0  0  0
 15 14  2  0  0  0  0
 16 11  1  0  0  0  0
 16 13  2  0  0  0  0
 17 12  2  0  0  0  0
 18  8  1  0  0  0  0
 19  4  1  0  0  0  0
 20 10  1  0  0  0  0
 21 10  1  0  0  0  0
 21 23  2  0  0  0  0
 22 19  2  0  0  0  0
 23 22  1  0  0  0  0
M  END
>  <ID>
7994120

>  <Supplier>
ChemBridge

>  <clogP>
2.680000000000000e+000

>  <RB>
5

>  <tPSA>
7.527000000000000e+001

>  <Hacc>
4

>  <Hdon>
2

>  <LogSw>
-3.898000000000000e+000

>  <Group>
2

>  <Core>
234

$$$$
7994123
 OpenBabel03312015312D

 22 24  0  0  0  0  0  0  0  0999 V2000
    5.8042   -2.6417    0.0000 C   0  0  0  0  0  0  0  0  0  0  0  0
    6.4750   -3.1292    0.0000 C   0  0  0  0  0  0  0  0  0  0  0  0
    3.6042   -2.6000    0.0000 C   0  0  3  0  0  0  0  0  0  0  0  0
    6.0625   -1.8542    0.0000 S   0  0  0  0  0  0  0  0  0  0  0  0
    2.9417   -2.1167    0.0000 N   0  0  0  0  0  0  0  0  0  0  0  0
    7.1500   -2.6417    0.0000 C   0  0  0  0  0  0  0  0  0  0  0  0
    5.0167   -2.9000    0.0000 N   0  0  0  0  0  0  0  0  0  0  0  0
    4.3917   -2.3417    0.0000 C   0  0  0  0  0  0  0  0  0  0  0  0
    6.8917   -1.8542    0.0000 C   0  0  0  0  0  0  0  0  0  0  0  0
    2.2667   -2.6000    0.0000 N   0  0  0  0  0  0  0  0  0  0  0  0
    2.5250   -3.3917    0.0000 C   0  0  0  0  0  0  0  0  0  0  0  0
    3.3542   -3.3917    0.0000 C   0  0  0  0  0  0  0  0  0  0  0  0
    6.4750   -3.9542    0.0000 C   0  0  0  0  0  0  0  0  0  0  0  0
    4.5667   -1.5375    0.0000 O   0  0  0  0  0  0  0  0  0  0  0  0
    2.0375   -4.0625    0.0000 O   0  0  0  0  0  0  0  0  0  0  0  0
    5.7542   -4.3750    0.0000 O   0  0  0  0  0  0  0  0  0  0  0  0
    7.1917   -4.3750    0.0000 O   0  0  0  0  0  0  0  0  0  0  0  0
    7.9792   -2.6417    0.0000 C   0  0  0  0  0  0  0  0  0  0  0  0
    2.9417   -1.2917    0.0000 C   0  0  0  0  0  0  0  0  0  0  0  0
    7.5625   -1.3750    0.0000 C   0  0  0  0  0  0  0  0  0  0  0  0
    8.2292   -1.8542    0.0000 C   0  0  0  0  0  0  0  0  0  0  0  0
    7.1917   -5.2042    0.0000 C   0  0  0  0  0  0  0  0  0  0  0  0
  2  1  2  0  0  0  0
  3  8  1  0  0  0  0
  4  1  1  0  0  0  0
  5  3  1  0  0  0  0
  6  2  1  0  0  0  0
  7  1  1  0  0  0  0
  8  7  1  0  0  0  0
  9  4  1  0  0  0  0
  9  6  2  0  0  0  0
 10  5  1  0  0  0  0
 11 12  1  0  0  0  0
 11 10  1  0  0  0  0
 12  3  1  0  0  0  0
 13  2  1  0  0  0  0
 14  8  2  0  0  0  0
 15 11  2  0  0  0  0
 16 13  2  0  0  0  0
 17 13  1  0  0  0  0
 18  6  1  0  0  0  0
 19  5  1  0  0  0  0
 20  9  1  0  0  0  0
 20 21  1  0  0  0  0
 21 18  1  0  0  0  0
 22 17  1  0  0  0  0
M  END
>  <ID>
7994123

>  <Supplier>
ChemBridge

>  <clogP>
-2.890000000000000e+000

>  <RB>
3

>  <tPSA>
1.250400000000000e+002

>  <Hacc>
6

>  <Hdon>
3

>  <LogSw>
-4.000000000000000e-001

>  <Group>
3

>  <Core>
098

$$$$
7994122
 OpenBabel03312015312D

 28 30  0  0  0  0  0  0  0  0999 V2000
   11.6750    0.6083    0.0000 C   0  0  0  0  0  0  0  0  0  0  0  0
   11.6750    1.3583    0.0000 C   0  0  0  0  0  0  0  0  0  0  0  0
   10.9542    0.3708    0.0000 N   0  0  0  0  0  0  0  0  0  0  0  0
   10.9542    1.5875    0.0000 O   0  0  0  0  0  0  0  0  0  0  0  0
   10.5167    0.9833    0.0000 C   0  0  0  0  0  0  0  0  0  0  0  0
   12.2792    0.1625    0.0000 C   0  0  0  0  0  0  0  0  0  0  0  0
   12.2792    1.7958    0.0000 N   0  0  0  0  0  0  0  0  0  0  0  0
   12.8875   -0.2792    0.0000 N   0  0  0  0  0  0  0  0  0  0  0  0
    9.7667    0.9833    0.0000 C   0  0  0  0  0  0  0  0  0  0  0  0
    7.5167    2.2833    0.0000 C   0  0  0  0  0  0  0  0  0  0  0  0
    9.3917    1.6333    0.0000 C   0  0  0  0  0  0  0  0  0  0  0  0
    7.1417    1.6333    0.0000 C   0  0  0  0  0  0  0  0  0  0  0  0
    8.2667    2.2833    0.0000 C   0  0  0  0  0  0  0  0  0  0  0  0
    8.6417    1.6333    0.0000 C   0  0  0  0  0  0  0  0  0  0  0  0
   12.9667    1.4958    0.0000 C   0  0  0  0  0  0  0  0  0  0  0  0
    7.5167    0.9833    0.0000 C   0  0  0  0  0  0  0  0  0  0  0  0
   14.3375    0.8833    0.0000 C   0  0  0  0  0  0  0  0  0  0  0  0
    8.2667    0.9833    0.0000 C   0  0  0  0  0  0  0  0  0  0  0  0
    7.1417    2.9333    0.0000 O   0  0  0  0  0  0  0  0  0  0  0  0
   13.5750    1.9333    0.0000 C   0  0  0  0  0  0  0  0  0  0  0  0
   13.0417    0.7458    0.0000 C   0  0  0  0  0  0  0  0  0  0  0  0
    6.3917    1.6333    0.0000 O   0  0  0  0  0  0  0  0  0  0  0  0
   14.2542    1.6250    0.0000 C   0  0  0  0  0  0  0  0  0  0  0  0
   13.7292    0.4375    0.0000 C   0  0  0  0  0  0  0  0  0  0  0  0
   15.0250    0.5750    0.0000 O   0  0  0  0  0  0  0  0  0  0  0  0
    7.5167    3.5833    0.0000 C   0  0  0  0  0  0  0  0  0  0  0  0
    6.0167    0.9833    0.0000 C   0  0  0  0  0  0  0  0  0  0  0  0
   15.1000   -0.1667    0.0000 C   0  0  0  0  0  0  0  0  0  0  0  0
  2  1  2  0  0  0  0
  3  1  1  0  0  0  0
  4  2  1  0  0  0  0
  4  5  1  0  0  0  0
  5  3  2  0  0  0  0
  6  1  1  0  0  0  0
  7  2  1  0  0  0  0
  8  6  3  0  0  0  0
  9  5  1  0  0  0  0
 10 13  2  0  0  0  0
 10 12  1  0  0  0  0
 11  9  2  0  0  0  0
 12 16  2  0  0  0  0
 13 14  1  0  0  0  0
 14 11  1  0  0  0  0
 15  7  1  0  0  0  0
 16 18  1  0  0  0  0
 17 24  2  0  0  0  0
 17 23  1  0  0  0  0
 18 14  2  0  0  0  0
 19 10  1  0  0  0  0
 20 15  1  0  0  0  0
 21 15  2  0  0  0  0
 22 12  1  0  0  0  0
 23 20  2  0  0  0  0
 24 21  1  0  0  0  0
 25 17  1  0  0  0  0
 26 19  1  0  0  0  0
 27 22  1  0  0  0  0
 28 25  1  0  0  0  0
M  END
>  <ID>
7994122

>  <Supplier>
ChemBridge

>  <clogP>
4.100000000000000e+000

>  <RB>
4

>  <tPSA>
8.954000000000002e+001

>  <Hacc>
6

>  <Hdon>
1

>  <LogSw>
-5.718000000000000e+000

>  <Group>
2

>  <Core>
261

$$$$
9069212
 OpenBabel03312015312D

 23 25  0  0  0  0  0  0  0  0999 V2000
    6.0167    1.8958    0.0000 S   0  0  0  0  0  0  0  0  0  0  0  0
    5.2667    1.8958    0.0000 C   0  0  0  0  0  0  0  0  0  0  0  0
    6.2125    1.1708    0.0000 N   0  0  0  0  0  0  0  0  0  0  0  0
    2.6417    1.2458    0.0000 C   0  0  0  0  0  0  0  0  0  0  0  0
    3.0167    1.8958    0.0000 N   0  0  0  0  0  0  0  0  0  0  0  0
    4.8917    2.5458    0.0000 C   0  0  0  0  0  0  0  0  0  0  0  0
    3.7667    1.8958    0.0000 C   0  0  0  0  0  0  0  0  0  0  0  0
    4.1417    2.5458    0.0000 C   0  0  0  0  0  0  0  0  0  0  0  0
    6.9292    0.9833    0.0000 C   0  0  0  0  0  0  0  0  0  0  0  0
    6.7542    2.0333    0.0000 O   0  0  0  0  0  0  0  0  0  0  0  0
    5.9500    2.6458    0.0000 O   0  0  0  0  0  0  0  0  0  0  0  0
    7.4667    0.4500    0.0000 C   0  0  0  0  0  0  0  0  0  0  0  0
    7.6542    1.1708    0.0000 C   0  0  0  0  0  0  0  0  0  0  0  0
    3.0167    0.6000    0.0000 O   0  0  0  0  0  0  0  0  0  0  0  0
    1.8917    1.2458    0.0000 C   0  0  0  0  0  0  0  0  0  0  0  0
    4.8917    1.2458    0.0000 C   0  0  0  0  0  0  0  0  0  0  0  0
    4.1417    1.2458    0.0000 C   0  0  0  0  0  0  0  0  0  0  0  0
    3.7667    3.1958    0.0000 F   0  0  0  0  0  0  0  0  0  0  0  0
    1.5167    1.8958    0.0000 C   0  0  0  0  0  0  0  0  0  0  0  0
    1.5167    0.6000    0.0000 C   0  0  0  0  0  0  0  0  0  0  0  0
    0.7667    0.6000    0.0000 C   0  0  0  0  0  0  0  0  0  0  0  0
    0.7667    1.8958    0.0000 C   0  0  0  0  0  0  0  0  0  0  0  0
    0.3917    1.2458    0.0000 C   0  0  0  0  0  0  0  0  0  0  0  0
  2  1  1  0  0  0  0
  3  1  1  0  0  0  0
  4  5  1  0  0  0  0
  5  7  1  0  0  0  0
  6  2  1  0  0  0  0
  7 17  2  0  0  0  0
  7  8  1  0  0  0  0
  8  6  2  0  0  0  0
  9  3  1  0  0  0  0
 10  1  2  0  0  0  0
 11  1  2  0  0  0  0
 12  9  1  0  0  0  0
 12 13  1  0  0  0  0
 13  9  1  0  0  0  0
 14  4  2  0  0  0  0
 15  4  1  0  0  0  0
 16  2  2  0  0  0  0
 17 16  1  0  0  0  0
 18  8  1  0  0  0  0
 19 15  1  0  0  0  0
 20 15  2  0  0  0  0
 21 20  1  0  0  0  0
 22 19  2  0  0  0  0
 23 21  2  0  0  0  0
 23 22  1  0  0  0  0
M  END
>  <ID>
9069212

>  <Supplier>
ChemBridge

>  <clogP>
1.977000000000000e+000

>  <RB>
4

>  <tPSA>
7.527000000000000e+001

>  <Hacc>
4

>  <Hdon>
2

>  <LogSw>
-3.924000000000000e+000

>  <Group>
2

>  <Core>
234

$$$$
5334125
 OpenBabel03312015312D

 17 17  0  0  0  0  0  0  0  0999 V2000
    2.5042   -1.1500    0.0000 C   0  0  0  0  0  0  0  0  0  0  0  0
    3.1542   -1.5167    0.0000 N   0  0  0  0  0  0  0  0  0  0  0  0
    4.4542   -1.5167    0.0000 C   0  0  0  0  0  0  0  0  0  0  0  0
    3.8042   -1.1500    0.0000 C   0  0  0  0  0  0  0  0  0  0  0  0
    2.5042   -0.4000    0.0000 O   0  0  0  0  0  0  0  0  0  0  0  0
    5.1042   -1.1500    0.0000 C   0  0  0  0  0  0  0  0  0  0  0  0
    1.8542   -1.5167    0.0000 C   0  0  0  0  0  0  0  0  0  0  0  0
    5.1042   -0.4000    0.0000 O   0  0  0  0  0  0  0  0  0  0  0  0
    4.4542   -2.2667    0.0000 C   0  0  0  0  0  0  0  0  0  0  0  0
    5.7542   -1.5167    0.0000 C   0  0  0  0  0  0  0  0  0  0  0  0
    1.2042   -1.1500    0.0000 C   0  0  0  0  0  0  0  0  0  0  0  0
    1.8542   -2.2667    0.0000 C   0  0  0  0  0  0  0  0  0  0  0  0
    5.7542   -0.0167    0.0000 C   0  0  0  0  0  0  0  0  0  0  0  0
    0.5542   -1.5167    0.0000 C   0  0  0  0  0  0  0  0  0  0  0  0
    1.2042   -2.6500    0.0000 C   0  0  0  0  0  0  0  0  0  0  0  0
    5.1042   -2.6500    0.0000 C   0  0  0  0  0  0  0  0  0  0  0  0
    5.7542   -2.2667    0.0000 C   0  0  0  0  0  0  0  0  0  0  0  0
  2  1  1  0  0  0  0
  3  4  1  0  0  0  0
  4  2  1  0  0  0  0
  5  1  2  0  0  0  0
  6  3  2  0  0  0  0
  7  1  1  0  0  0  0
  8  6  1  0  0  0  0
  9  3  1  0  0  0  0
 10  6  1  0  0  0  0
 11  7  1  0  0  0  0
 12  7  1  0  0  0  0
 13  8  1  0  0  0  0
 14 11  1  0  0  0  0
 15 12  1  0  0  0  0
 16  9  2  0  0  0  0
 17 16  1  0  0  0  0
 17 10  2  0  0  0  0
M  END
>  <ID>
5334125

>  <Supplier>
ChemBridge

>  <clogP>
2.760000000000000e+000

>  <RB>
3

>  <tPSA>
3.833000000000000e+001

>  <Hacc>
2

>  <Hdon>
1

>  <LogSw>
-3.274000000000000e+000

>  <Group>
3

$$$$
6416115
 OpenBabel03312015312D

 25 27  0  0  0  0  0  0  0  0999 V2000
   -1.0083    0.1958    0.0000 S   0  0  0  0  0  0  0  0  0  0  0  0
   -0.1833    0.1958    0.0000 N   0  0  0  0  0  0  0  0  0  0  0  0
   -1.8333    0.2083    0.0000 C   0  0  0  0  0  0  0  0  0  0  0  0
    1.4625    0.1958    0.0000 N   0  0  0  0  0  0  0  0  0  0  0  0
    2.2875    0.1958    0.0000 C   0  0  0  0  0  0  0  0  0  0  0  0
   -2.2458   -0.5000    0.0000 C   0  0  0  0  0  0  0  0  0  0  0  0
   -1.4125   -0.5167    0.0000 O   0  0  0  0  0  0  0  0  0  0  0  0
   -1.4208    0.9083    0.0000 O   0  0  0  0  0  0  0  0  0  0  0  0
    0.2292   -0.5167    0.0000 C   0  0  0  0  0  0  0  0  0  0  0  0
    0.2250    0.9083    0.0000 C   0  0  0  0  0  0  0  0  0  0  0  0
   -3.0708   -0.4917    0.0000 C   0  0  0  0  0  0  0  0  0  0  0  0
    1.0500    0.9083    0.0000 C   0  0  0  0  0  0  0  0  0  0  0  0
    1.0500   -0.5167    0.0000 C   0  0  0  0  0  0  0  0  0  0  0  0
   -3.4750    0.2250    0.0000 C   0  0  0  0  0  0  0  0  0  0  0  0
   -2.2333    0.9250    0.0000 C   0  0  0  0  0  0  0  0  0  0  0  0
    2.7000   -0.5167    0.0000 C   0  0  0  0  0  0  0  0  0  0  0  0
   -3.0583    0.9375    0.0000 C   0  0  0  0  0  0  0  0  0  0  0  0
   -4.3000    0.2458    0.0000 Cl  0  0  0  0  0  0  0  0  0  0  0  0
    2.2792   -1.2292    0.0000 O   0  0  0  0  0  0  0  0  0  0  0  0
    2.7000    0.9083    0.0000 C   0  0  0  0  0  0  0  0  0  0  0  0
   -3.4875   -1.2042    0.0000 C   0  0  0  0  0  0  0  0  0  0  0  0
    3.5167   -0.5167    0.0000 C   0  0  0  0  0  0  0  0  0  0  0  0
    2.6917   -1.9500    0.0000 C   0  0  0  0  0  0  0  0  0  0  0  0
    3.5167    0.9083    0.0000 C   0  0  0  0  0  0  0  0  0  0  0  0
    3.9375    0.1958    0.0000 C   0  0  0  0  0  0  0  0  0  0  0  0
  2  1  1  0  0  0  0
  3  1  1  0  0  0  0
  4 12  1  0  0  0  0
  5  4  1  0  0  0  0
  6  3  1  0  0  0  0
  7  1  2  0  0  0  0
  8  1  2  0  0  0  0
  9  2  1  0  0  0  0
 10  2  1  0  0  0  0
 11  6  2  0  0  0  0
 12 10  1  0  0  0  0
 13  9  1  0  0  0  0
 13  4  1  0  0  0  0
 14 17  2  0  0  0  0
 14 11  1  0  0  0  0
 15  3  2  0  0  0  0
 16  5  2  0  0  0  0
 17 15  1  0  0  0  0
 18 14  1  0  0  0  0
 19 16  1  0  0  0  0
 20  5  1  0  0  0  0
 21 11  1  0  0  0  0
 22 16  1  0  0  0  0
 23 19  1  0  0  0  0
 24 20  2  0  0  0  0
 25 24  1  0  0  0  0
 25 22  2  0  0  0  0
M  END
>  <ID>
6416115

>  <Supplier>
ChemBridge

>  <clogP>
3.910000000000000e+000

>  <RB>
2

>  <tPSA>
4.985000000000000e+001

>  <Hacc>
4

>  <Hdon>
0

>  <LogSw>
-5.316000000000000e+000

>  <Group>
3

>  <Core>
161

$$$$
5114344
 OpenBabel03312015312D

 25 27  0  0  0  0  0  0  0  0999 V2000
   -1.5333   -0.6875    0.0000 C   0  0  0  0  0  0  0  0  0  0  0  0
   -1.5500   -0.0292    0.0000 N   0  0  0  0  0  0  0  0  0  0  0  0
   -0.8625   -1.0667    0.0000 C   0  0  0  0  0  0  0  0  0  0  0  0
   -2.1458    0.3000    0.0000 C   0  0  0  0  0  0  0  0  0  0  0  0
   -0.9958    0.3458    0.0000 C   0  0  0  0  0  0  0  0  0  0  0  0
   -2.1000   -1.0375    0.0000 O   0  0  0  0  0  0  0  0  0  0  0  0
   -0.8625   -1.7167    0.0000 C   0  0  0  0  0  0  0  0  0  0  0  0
   -0.3000   -0.7375    0.0000 C   0  0  0  0  0  0  0  0  0  0  0  0
   -2.1625    0.9708    0.0000 C   0  0  0  0  0  0  0  0  0  0  0  0
   -2.7125   -0.0542    0.0000 C   0  0  0  0  0  0  0  0  0  0  0  0
   -1.0125    1.0000    0.0000 C   0  0  0  0  0  0  0  0  0  0  0  0
    0.2792   -1.7167    0.0000 C   0  0  0  0  0  0  0  0  0  0  0  0
   -1.0333    2.3208    0.0000 C   0  0  0  0  0  0  0  0  0  0  0  0
    0.2792   -1.0667    0.0000 C   0  0  0  0  0  0  0  0  0  0  0  0
   -0.2125   -2.0500    0.0000 C   0  0  0  0  0  0  0  0  0  0  0  0
   -3.2708    0.2708    0.0000 C   0  0  0  0  0  0  0  0  0  0  0  0
   -2.7500    1.2833    0.0000 C   0  0  0  0  0  0  0  0  0  0  0  0
   -3.3125    0.9458    0.0000 C   0  0  0  0  0  0  0  0  0  0  0  0
   -1.0333    3.0000    0.0000 F   0  0  0  0  0  0  0  0  0  0  0  0
    1.0875   -2.1667    0.0000 F   0  0  0  0  0  0  0  0  0  0  0  0
   -1.5833    1.3125    0.0000 C   0  0  0  0  0  0  0  0  0  0  0  0
   -0.4333    1.3458    0.0000 C   0  0  0  0  0  0  0  0  0  0  0  0
   -1.6000    1.9708    0.0000 C   0  0  0  0  0  0  0  0  0  0  0  0
   -0.4500    2.0000    0.0000 C   0  0  0  0  0  0  0  0  0  0  0  0
   -3.9958    1.2708    0.0000 C   0  0  0  0  0  0  0  0  0  0  0  0
  2  1  1  0  0  0  0
  3  1  1  0  0  0  0
  4  2  1  0  0  0  0
  5  2  1  0  0  0  0
  6  1  2  0  0  0  0
  7  3  1  0  0  0  0
  8  3  2  0  0  0  0
  9  4  2  0  0  0  0
 10  4  1  0  0  0  0
 11  5  1  0  0  0  0
 12 14  2  0  0  0  0
 13 24  1  0  0  0  0
 13 23  2  0  0  0  0
 14  8  1  0  0  0  0
 15  7  2  0  0  0  0
 15 12  1  0  0  0  0
 16 10  2  0  0  0  0
 17  9  1  0  0  0  0
 18 16  1  0  0  0  0
 18 17  2  0  0  0  0
 19 13  1  0  0  0  0
 20 12  1  0  0  0  0
 21 11  2  0  0  0  0
 22 11  1  0  0  0  0
 23 21  1  0  0  0  0
 24 22  2  0  0  0  0
 25 18  1  0  0  0  0
M  END
>  <ID>
5114344

>  <Supplier>
ChemBridge

>  <clogP>
5.890000000000000e+000

>  <RB>
4

>  <tPSA>
2.031000000000000e+001

>  <Hacc>
1

>  <Hdon>
0

>  <LogSw>
-6.690000000000000e+000

>  <Group>
1

>  <Core>
511

$$$$
5114341
 OpenBabel03312015312D

 30 33  0  0  0  0  0  0  0  0999 V2000
   -1.5500   -0.0292    0.0000 N   0  0  0  0  0  0  0  0  0  0  0  0
   -1.5333   -0.6875    0.0000 C   0  0  0  0  0  0  0  0  0  0  0  0
   -2.1458    0.3000    0.0000 C   0  0  0  0  0  0  0  0  0  0  0  0
   -0.9958    0.3458    0.0000 C   0  0  0  0  0  0  0  0  0  0  0  0
    1.8000   -1.2292    0.0000 C   0  0  0  0  0  0  0  0  0  0  0  0
   -0.8833   -1.0667    0.0000 C   0  0  0  0  0  0  0  0  0  0  0  0
   -2.1000   -1.0375    0.0000 O   0  0  0  0  0  0  0  0  0  0  0  0
    1.2167   -0.9000    0.0000 C   0  0  0  0  0  0  0  0  0  0  0  0
    1.8000   -1.8875    0.0000 C   0  0  0  0  0  0  0  0  0  0  0  0
   -2.1625    0.9708    0.0000 C   0  0  0  0  0  0  0  0  0  0  0  0
   -2.7125   -0.0542    0.0000 C   0  0  0  0  0  0  0  0  0  0  0  0
   -0.1458   -0.7375    0.0000 O   0  0  0  0  0  0  0  0  0  0  0  0
    1.3042   -2.2042    0.0000 C   0  0  0  0  0  0  0  0  0  0  0  0
    0.6542   -1.2292    0.0000 C   0  0  0  0  0  0  0  0  0  0  0  0
   -1.0125    1.0000    0.0000 C   0  0  0  0  0  0  0  0  0  0  0  0
   -1.0333    2.3208    0.0000 C   0  0  0  0  0  0  0  0  0  0  0  0
    0.6542   -1.8875    0.0000 C   0  0  0  0  0  0  0  0  0  0  0  0
   -2.7500    1.2833    0.0000 C   0  0  0  0  0  0  0  0  0  0  0  0
   -3.2708    0.2708    0.0000 C   0  0  0  0  0  0  0  0  0  0  0  0
   -3.3125    0.9458    0.0000 C   0  0  0  0  0  0  0  0  0  0  0  0
   -1.0333    3.0000    0.0000 F   0  0  0  0  0  0  0  0  0  0  0  0
   -1.5833    1.3125    0.0000 C   0  0  0  0  0  0  0  0  0  0  0  0
   -0.4333    1.3458    0.0000 C   0  0  0  0  0  0  0  0  0  0  0  0
   -1.6000    1.9708    0.0000 C   0  0  0  0  0  0  0  0  0  0  0  0
   -0.4500    2.0000    0.0000 C   0  0  0  0  0  0  0  0  0  0  0  0
    2.3792   -0.8667    0.0000 C   0  0  0  0  0  0  0  0  0  0  0  0
    2.3792   -2.2500    0.0000 C   0  0  0  0  0  0  0  0  0  0  0  0
   -3.9958    1.2708    0.0000 C   0  0  0  0  0  0  0  0  0  0  0  0
    2.9792   -1.2042    0.0000 C   0  0  0  0  0  0  0  0  0  0  0  0
    2.9792   -1.9000    0.0000 C   0  0  0  0  0  0  0  0  0  0  0  0
  2  1  1  0  0  0  0
  3  1  1  0  0  0  0
  4  1  1  0  0  0  0
  5  8  1  0  0  0  0
  6  2  1  0  0  0  0
  7  2  2  0  0  0  0
  8 14  2  0  0  0  0
  9 13  1  0  0  0  0
  9  5  2  0  0  0  0
 10  3  2  0  0  0  0
 11  3  1  0  0  0  0
 12  6  1  0  0  0  0
 13 17  2  0  0  0  0
 14 12  1  0  0  0  0
 15  4  1  0  0  0  0
 16 25  1  0  0  0  0
 17 14  1  0  0  0  0
 18 10  1  0  0  0  0
 19 11  2  0  0  0  0
 20 19  1  0  0  0  0
 20 18  2  0  0  0  0
 21 16  1  0  0  0  0
 22 15  2  0  0  0  0
 23 15  1  0  0  0  0
 24 22  1  0  0  0  0
 24 16  2  0  0  0  0
 25 23  2  0  0  0  0
 26  5  1  0  0  0  0
 27  9  1  0  0  0  0
 28 20  1  0  0  0  0
 29 26  2  0  0  0  0
 30 27  2  0  0  0  0
 30 29  1  0  0  0  0
M  END
>  <ID>
5114341

>  <Supplier>
ChemBridge

>  <clogP>
6.400000000000000e+000

>  <RB>
6

>  <tPSA>
2.954000000000000e+001

>  <Hacc>
2

>  <Hdon>
0

>  <LogSw>
-7.578000000000000e+000

>  <Group>
3

>  <Core>
315

$$$$
5553422
 OpenBabel03312015312D

 22 23  0  0  0  0  0  0  0  0999 V2000
   -0.0125    0.0625    0.0000 C   0  0  0  0  0  0  0  0  0  0  0  0
    2.7792   -1.5542    0.0000 C   0  0  0  0  0  0  0  0  0  0  0  0
   -1.4208    0.8708    0.0000 N   0  0  0  0  0  0  0  0  0  0  0  0
    3.7167   -1.5542    0.0000 C   0  0  0  0  0  0  0  0  0  0  0  0
   -2.8208    0.0625    0.0000 C   0  0  0  0  0  0  0  0  0  0  0  0
    2.3042   -0.7500    0.0000 C   0  0  0  0  0  0  0  0  0  0  0  0
   -0.4833    0.8708    0.0000 N   0  0  0  0  0  0  0  0  0  0  0  0
    1.3792   -0.7500    0.0000 O   0  0  0  0  0  0  0  0  0  0  0  0
   -0.4833   -0.7500    0.0000 O   0  0  0  0  0  0  0  0  0  0  0  0
   -3.2958   -0.7500    0.0000 C   0  0  0  0  0  0  0  0  0  0  0  0
   -1.8958    0.0625    0.0000 C   0  0  0  0  0  0  0  0  0  0  0  0
    0.9167    0.0625    0.0000 C   0  0  0  0  0  0  0  0  0  0  0  0
    2.7792    0.0625    0.0000 C   0  0  0  0  0  0  0  0  0  0  0  0
    4.1875   -0.7500    0.0000 C   0  0  0  0  0  0  0  0  0  0  0  0
    2.3042   -2.3667    0.0000 Cl  0  0  0  0  0  0  0  0  0  0  0  0
   -2.8208   -1.5542    0.0000 Br  0  0  0  0  0  0  0  0  0  0  0  0
    3.7167    0.0625    0.0000 C   0  0  0  0  0  0  0  0  0  0  0  0
    5.1167   -0.7500    0.0000 Cl  0  0  0  0  0  0  0  0  0  0  0  0
   -3.2958    0.8708    0.0000 C   0  0  0  0  0  0  0  0  0  0  0  0
   -4.2333   -0.7500    0.0000 C   0  0  0  0  0  0  0  0  0  0  0  0
   -4.2333    0.8708    0.0000 C   0  0  0  0  0  0  0  0  0  0  0  0
   -4.7083    0.0625    0.0000 C   0  0  0  0  0  0  0  0  0  0  0  0
  2  6  2  0  0  0  0
  3  7  1  0  0  0  0
  4  2  1  0  0  0  0
  5 11  1  0  0  0  0
  6  8  1  0  0  0  0
  7  1  1  0  0  0  0
  8 12  1  0  0  0  0
  9  1  2  0  0  0  0
 10  5  1  0  0  0  0
 11  3  2  0  0  0  0
 12  1  1  0  0  0  0
 13  6  1  0  0  0  0
 14 17  1  0  0  0  0
 14  4  2  0  0  0  0
 15  2  1  0  0  0  0
 16 10  1  0  0  0  0
 17 13  2  0  0  0  0
 18 14  1  0  0  0  0
 19  5  2  0  0  0  0
 20 10  2  0  0  0  0
 21 19  1  0  0  0  0
 22 21  2  0  0  0  0
 22 20  1  0  0  0  0
M  END
>  <ID>
5553422

>  <Supplier>
ChemBridge

>  <clogP>
4.920000000000000e+000

>  <RB>
5

>  <tPSA>
5.069000000000000e+001

>  <Hacc>
3

>  <Hdon>
1

>  <LogSw>
-6.333000000000000e+000

>  <Group>
1

>  <Core>
315

$$$$
6646330
 OpenBabel03312015312D

 19 21  0  0  0  0  0  0  0  0999 V2000
   -2.1333    0.2833    0.0000 C   0  0  0  0  0  0  0  0  0  0  0  0
   -2.6125    0.8208    0.0000 N   0  0  0  0  0  0  0  0  0  0  0  0
   -2.4958   -0.3375    0.0000 S   0  0  0  0  0  0  0  0  0  0  0  0
   -1.4125    0.2833    0.0000 C   0  0  0  0  0  0  0  0  0  0  0  0
   -1.0500   -0.3375    0.0000 N   0  0  0  0  0  0  0  0  0  0  0  0
   -3.2500    0.5458    0.0000 C   0  0  0  0  0  0  0  0  0  0  0  0
   -3.1958   -0.1792    0.0000 C   0  0  0  0  0  0  0  0  0  0  0  0
   -0.3333   -0.3375    0.0000 C   0  0  0  0  0  0  0  0  0  0  0  0
   -1.0500    0.9208    0.0000 S   0  0  0  0  0  0  0  0  0  0  0  0
    0.0500   -0.9542    0.0000 C   0  0  0  0  0  0  0  0  0  0  0  0
   -0.2833   -1.5875    0.0000 Cl  0  0  0  0  0  0  0  0  0  0  0  0
   -3.9000    0.8458    0.0000 C   0  0  0  0  0  0  0  0  0  0  0  0
   -3.7833   -0.5875    0.0000 C   0  0  0  0  0  0  0  0  0  0  0  0
    0.0500    0.3000    0.0000 C   0  0  0  0  0  0  0  0  0  0  0  0
    0.7667   -0.9375    0.0000 C   0  0  0  0  0  0  0  0  0  0  0  0
   -4.4958    0.4458    0.0000 C   0  0  0  0  0  0  0  0  0  0  0  0
   -4.4333   -0.2792    0.0000 C   0  0  0  0  0  0  0  0  0  0  0  0
    0.7667    0.3000    0.0000 C   0  0  0  0  0  0  0  0  0  0  0  0
    1.1292   -0.3167    0.0000 C   0  0  0  0  0  0  0  0  0  0  0  0
  2  1  2  0  0  0  0
  3  1  1  0  0  0  0
  4  1  1  0  0  0  0
  5  4  1  0  0  0  0
  6  2  1  0  0  0  0
  7  3  1  0  0  0  0
  7  6  2  0  0  0  0
  8  5  1  0  0  0  0
  9  4  2  0  0  0  0
 10  8  2  0  0  0  0
 11 10  1  0  0  0  0
 12  6  1  0  0  0  0
 13  7  1  0  0  0  0
 14  8  1  0  0  0  0
 15 10  1  0  0  0  0
 15 19  2  0  0  0  0
 16 12  2  0  0  0  0
 17 13  2  0  0  0  0
 17 16  1  0  0  0  0
 18 14  2  0  0  0  0
 19 18  1  0  0  0  0
M  END
>  <ID>
6646330

>  <Supplier>
ChemBridge

>  <clogP>
4.280000000000000e+000

>  <RB>
2

>  <tPSA>
2.492000000000000e+001

>  <Hacc>
1

>  <Hdon>
1

>  <LogSw>
-5.078000000000000e+000

>  <Group>
3

$$$$
9133495
 OpenBabel03312015312D

 26 27  0  0  0  0  0  0  0  0999 V2000
    6.1750    3.5208    0.0000 C   0  0  0  0  0  0  0  0  0  0  0  0
    6.8542    3.2125    0.0000 C   0  0  0  0  0  0  0  0  0  0  0  0
    6.2542    4.2542    0.0000 S   0  0  0  0  0  0  0  0  0  0  0  0
    7.3625    3.7708    0.0000 C   0  0  0  0  0  0  0  0  0  0  0  0
    2.2792    3.5208    0.0000 N   0  0  0  0  0  0  0  0  0  0  0  0
    2.9250    3.1458    0.0000 C   0  0  0  0  0  0  0  0  0  0  0  0
    6.9875    4.4042    0.0000 C   0  0  0  0  0  0  0  0  0  0  0  0
    2.9250    2.3958    0.0000 N   0  0  0  0  0  0  0  0  0  0  0  0
    1.6292    3.1458    0.0000 C   0  0  0  0  0  0  0  0  0  0  0  0
    5.5250    3.1458    0.0000 N   0  0  0  0  0  0  0  0  0  0  0  0
    1.6292    2.3958    0.0000 C   0  0  0  0  0  0  0  0  0  0  0  0
    7.0167    2.4833    0.0000 C   0  0  0  0  0  0  0  0  0  0  0  0
    2.2792    2.0208    0.0000 C   0  0  0  0  0  0  0  0  0  0  0  0
    4.8750    3.5208    0.0000 C   0  0  0  0  0  0  0  0  0  0  0  0
    3.5750    3.5208    0.0000 S   0  0  0  0  0  0  0  0  0  0  0  0
    0.9792    3.5208    0.0000 O   0  0  0  0  0  0  0  0  0  0  0  0
    6.4542    1.9750    0.0000 O   0  0  0  0  0  0  0  0  0  0  0  0
    4.8750    4.2625    0.0000 O   0  0  0  0  0  0  0  0  0  0  0  0
    4.2250    3.1458    0.0000 C   0  0  0  0  0  0  0  0  0  0  0  0
    7.7292    2.2458    0.0000 O   0  0  0  0  0  0  0  0  0  0  0  0
    8.1042    3.6958    0.0000 C   0  0  0  0  0  0  0  0  0  0  0  0
    7.2917    5.0917    0.0000 C   0  0  0  0  0  0  0  0  0  0  0  0
    2.2792    1.2708    0.0000 C   0  0  0  0  0  0  0  0  0  0  0  0
    7.8792    1.5125    0.0000 C   0  0  0  0  0  0  0  0  0  0  0  0
    1.6292    0.8958    0.0000 C   0  0  0  0  0  0  0  0  0  0  0  0
    8.6000    1.2833    0.0000 C   0  0  0  0  0  0  0  0  0  0  0  0
  2  1  2  0  0  0  0
  3  1  1  0  0  0  0
  4  2  1  0  0  0  0
  5  6  1  0  0  0  0
  6 15  1  0  0  0  0
  7  3  1  0  0  0  0
  7  4  2  0  0  0  0
  8  6  2  0  0  0  0
  9  5  1  0  0  0  0
 10  1  1  0  0  0  0
 11 13  2  0  0  0  0
 11  9  1  0  0  0  0
 12  2  1  0  0  0  0
 13  8  1  0  0  0  0
 14 10  1  0  0  0  0
 15 19  1  0  0  0  0
 16  9  2  0  0  0  0
 17 12  2  0  0  0  0
 18 14  2  0  0  0  0
 19 14  1  0  0  0  0
 20 12  1  0  0  0  0
 21  4  1  0  0  0  0
 22  7  1  0  0  0  0
 23 13  1  0  0  0  0
 24 20  1  0  0  0  0
 25 23  1  0  0  0  0
 26 24  1  0  0  0  0
M  END
>  <ID>
9133495

>  <Supplier>
ChemBridge

>  <clogP>
3.100000000000000e+000

>  <RB>
5

>  <tPSA>
1.011500000000000e+002

>  <Hacc>
5

>  <Hdon>
2

>  <LogSw>
-4.731000000000003e+000

>  <Group>
2

$$$$
9133496
 OpenBabel03312015312D

 21 23  0  0  0  0  0  0  0  0999 V2000
    4.4500    1.6708    0.0000 N   0  0  0  0  0  0  0  0  0  0  0  0
    5.1292    1.9750    0.0000 N   0  0  0  0  0  0  0  0  0  0  0  0
    5.0542    2.7250    0.0000 C   0  0  0  0  0  0  0  0  0  0  0  0
    4.3167    2.8833    0.0000 C   0  0  0  0  0  0  0  0  0  0  0  0
    3.9417    2.2333    0.0000 C   0  0  0  0  0  0  0  0  0  0  0  0
    5.7792    1.6000    0.0000 C   0  0  0  0  0  0  0  0  0  0  0  0
    3.2000    2.1500    0.0000 C   0  0  0  0  0  0  0  0  0  0  0  0
    2.7542    2.7583    0.0000 C   0  0  0  0  0  0  0  0  0  0  0  0
    5.6125    3.2333    0.0000 O   0  0  0  0  0  0  0  0  0  0  0  0
    5.7792    0.8500    0.0000 C   0  0  0  0  0  0  0  0  0  0  0  0
    6.4292    1.9750    0.0000 C   0  0  0  0  0  0  0  0  0  0  0  0
    7.0792    0.8500    0.0000 C   0  0  0  0  0  0  0  0  0  0  0  0
    2.0042    2.6833    0.0000 C   0  0  0  0  0  0  0  0  0  0  0  0
    6.4292    0.4750    0.0000 C   0  0  0  0  0  0  0  0  0  0  0  0
    7.0792    1.6000    0.0000 C   0  0  0  0  0  0  0  0  0  0  0  0
    7.7292    0.4750    0.0000 F   0  0  0  0  0  0  0  0  0  0  0  0
    1.5750    3.2958    0.0000 O   0  0  0  0  0  0  0  0  0  0  0  0
    2.8917    1.4708    0.0000 C   0  0  0  0  0  0  0  0  0  0  0  0
    2.1500    1.3875    0.0000 C   0  0  0  0  0  0  0  0  0  0  0  0
    1.7042    1.9958    0.0000 C   0  0  0  0  0  0  0  0  0  0  0  0
    0.8292    3.2083    0.0000 C   0  0  0  0  0  0  0  0  0  0  0  0
  2  1  1  0  0  0  0
  3  2  1  0  0  0  0
  4  5  1  0  0  0  0
  4  3  2  0  0  0  0
  5  1  2  0  0  0  0
  6  2  1  0  0  0  0
  7  5  1  0  0  0  0
  8  7  1  0  0  0  0
  9  3  1  0  0  0  0
 10  6  2  0  0  0  0
 11  6  1  0  0  0  0
 12 15  1  0  0  0  0
 12 14  2  0  0  0  0
 13  8  2  0  0  0  0
 14 10  1  0  0  0  0
 15 11  2  0  0  0  0
 16 12  1  0  0  0  0
 17 13  1  0  0  0  0
 18  7  2  0  0  0  0
 19 18  1  0  0  0  0
 20 19  2  0  0  0  0
 20 13  1  0  0  0  0
 21 17  1  0  0  0  0
M  END
>  <ID>
9133496

>  <Supplier>
ChemBridge

>  <clogP>
4.359000000000000e+000

>  <RB>
2

>  <tPSA>
4.728000000000000e+001

>  <Hacc>
3

>  <Hdon>
1

>  <LogSw>
-4.996000000000000e+000

>  <Group>
2

$$$$
7933378
 OpenBabel03312015312D

 20 21  0  0  0  0  0  0  0  0999 V2000
    5.2292    2.9833    0.0000 C   0  0  0  0  0  0  0  0  0  0  0  0
    2.6042    2.3333    0.0000 C   0  0  0  0  0  0  0  0  0  0  0  0
    2.9792    1.6750    0.0000 N   0  0  0  0  0  0  0  0  0  0  0  0
    3.7292    1.6750    0.0000 C   0  0  0  0  0  0  0  0  0  0  0  0
    4.8542    2.3333    0.0000 C   0  0  0  0  0  0  0  0  0  0  0  0
    4.1042    2.3333    0.0000 C   0  0  0  0  0  0  0  0  0  0  0  0
    4.1042    1.0250    0.0000 C   0  0  0  0  0  0  0  0  0  0  0  0
    2.9792    2.9833    0.0000 O   0  0  0  0  0  0  0  0  0  0  0  0
    5.2292    1.6750    0.0000 C   0  0  0  0  0  0  0  0  0  0  0  0
    1.8542    2.3333    0.0000 C   0  0  0  0  0  0  0  0  0  0  0  0
    4.8542    1.0250    0.0000 C   0  0  0  0  0  0  0  0  0  0  0  0
    5.9500    2.7833    0.0000 F   0  0  0  0  0  0  0  0  0  0  0  0
    5.4792    3.6833    0.0000 F   0  0  0  0  0  0  0  0  0  0  0  0
    4.5417    3.2958    0.0000 F   0  0  0  0  0  0  0  0  0  0  0  0
    3.7292    0.3750    0.0000 F   0  0  0  0  0  0  0  0  0  0  0  0
    1.4792    2.9833    0.0000 C   0  0  0  0  0  0  0  0  0  0  0  0
    1.4792    1.6750    0.0000 C   0  0  0  0  0  0  0  0  0  0  0  0
    0.7292    1.6750    0.0000 C   0  0  0  0  0  0  0  0  0  0  0  0
    0.7292    2.9833    0.0000 C   0  0  0  0  0  0  0  0  0  0  0  0
    0.3542    2.3333    0.0000 C   0  0  0  0  0  0  0  0  0  0  0  0
  2  3  1  0  0  0  0
  3  4  1  0  0  0  0
  4  6  1  0  0  0  0
  5  1  1  0  0  0  0
  6  5  2  0  0  0  0
  7 11  1  0  0  0  0
  7  4  2  0  0  0  0
  8  2  2  0  0  0  0
  9  5  1  0  0  0  0
 10  2  1  0  0  0  0
 11  9  2  0  0  0  0
 12  1  1  0  0  0  0
 13  1  1  0  0  0  0
 14  1  1  0  0  0  0
 15  7  1  0  0  0  0
 16 10  1  0  0  0  0
 17 10  1  0  0  0  0
 18 17  1  0  0  0  0
 19 16  1  0  0  0  0
 19 20  1  0  0  0  0
 20 18  1  0  0  0  0
M  END
>  <ID>
7933378

>  <Supplier>
ChemBridge

>  <clogP>
4.159000000000000e+000

>  <RB>
2

>  <tPSA>
2.910000000000000e+001

>  <Hacc>
1

>  <Hdon>
1

>  <LogSw>
-4.861999999999998e+000

>  <Group>
1

$$$$
6056515
 OpenBabel03312015312D

 16 17  0  0  0  0  0  0  0  0999 V2000
    4.2875   -0.9000    0.0000 N   0  0  0  0  0  0  0  0  0  0  0  0
    3.7292   -1.5250    0.0000 C   0  0  0  0  0  0  0  0  0  0  0  0
    3.0667   -0.3667    0.0000 C   0  0  0  0  0  0  0  0  0  0  0  0
    3.8750   -0.1917    0.0000 C   0  0  0  0  0  0  0  0  0  0  0  0
    2.9750   -1.1917    0.0000 S   0  0  0  0  0  0  0  0  0  0  0  0
    2.4417    0.1833    0.0000 C   0  0  0  0  0  0  0  0  0  0  0  0
    1.6667   -0.0667    0.0000 C   0  0  0  0  0  0  0  0  0  0  0  0
    0.3250   -0.0667    0.0000 C   0  0  0  0  0  0  0  0  0  0  0  0
    1.0000    0.4125    0.0000 O   0  0  0  0  0  0  0  0  0  0  0  0
    3.9042   -2.3375    0.0000 N   0  0  0  0  0  0  0  0  0  0  0  0
    0.5792   -0.8625    0.0000 C   0  0  0  0  0  0  0  0  0  0  0  0
    1.4125   -0.8625    0.0000 C   0  0  0  0  0  0  0  0  0  0  0  0
    4.2042    0.5625    0.0000 O   0  0  0  0  0  0  0  0  0  0  0  0
    5.1042   -0.9792    0.0000 C   0  0  0  0  0  0  0  0  0  0  0  0
   -0.4583    0.1833    0.0000 I   0  0  0  0  0  0  0  0  0  0  0  0
    3.2875   -2.8917    0.0000 C   0  0  0  0  0  0  0  0  0  0  0  0
  2  1  1  0  0  0  0
  3  4  1  0  0  0  0
  4  1  1  0  0  0  0
  5  2  1  0  0  0  0
  5  3  1  0  0  0  0
  6  3  2  0  0  0  0
  7  6  1  0  0  0  0
  8  9  1  0  0  0  0
  9  7  1  0  0  0  0
 10  2  2  0  0  0  0
 11 12  1  0  0  0  0
 11  8  2  0  0  0  0
 12  7  2  0  0  0  0
 13  4  2  0  0  0  0
 14  1  1  0  0  0  0
 15  8  1  0  0  0  0
 16 10  1  0  0  0  0
M  END
>  <ID>
6056515

>  <Supplier>
ChemBridge

>  <clogP>
2.800000000000000e+000

>  <RB>
1

>  <tPSA>
4.581000000000000e+001

>  <Hacc>
3

>  <Hdon>
0

>  <LogSw>
-4.130000000000000e+000

>  <Group>
3

>  <Core>
241

$$$$
7933371
 OpenBabel03312015312D

 35 39  0  0  0  0  0  0  0  0999 V2000
   11.2125   -0.0917    0.0000 C   0  0  0  0  0  0  0  0  0  0  0  0
    6.0167    2.1583    0.0000 N   0  3  0  0  0  0  0  0  0  0  0  0
    6.6625    1.7833    0.0000 C   0  0  0  0  0  0  0  0  0  0  0  0
    6.6625    1.0333    0.0000 C   0  0  0  0  0  0  0  0  0  0  0  0
   10.5625   -0.4667    0.0000 C   0  0  0  0  0  0  0  0  0  0  0  0
   11.8917   -0.4000    0.0000 O   0  0  0  0  0  0  0  0  0  0  0  0
   11.2875    0.6500    0.0000 C   0  0  0  0  0  0  0  0  0  0  0  0
    9.9125   -0.0917    0.0000 N   0  0  0  0  0  0  0  0  0  0  0  0
    8.6125    0.6583    0.0000 N   0  0  0  0  0  0  0  0  0  0  0  0
    6.0167    0.6583    0.0000 N   0  0  0  0  0  0  0  0  0  0  0  0
    7.3125    0.6583    0.0000 C   0  0  0  0  0  0  0  0  0  0  0  0
    7.9625    1.0333    0.0000 C   0  0  0  0  0  0  0  0  0  0  0  0
   12.4000    0.1583    0.0000 C   0  0  0  0  0  0  0  0  0  0  0  0
   12.0250    0.8083    0.0000 C   0  0  0  0  0  0  0  0  0  0  0  0
    7.3125    2.1583    0.0000 C   0  0  0  0  0  0  0  0  0  0  0  0
    6.0167    2.9083    0.0000 O   0  5  0  0  0  0  0  0  0  0  0  0
    5.5542    1.8958    0.0000 O   0  0  0  0  0  0  0  0  0  0  0  0
    6.1417   -0.0792    0.0000 C   0  0  3  0  0  0  0  0  0  0  0  0
    9.2625   -0.4667    0.0000 C   0  0  0  0  0  0  0  0  0  0  0  0
    9.9125    0.6583    0.0000 C   0  0  0  0  0  0  0  0  0  0  0  0
   10.5625   -1.2167    0.0000 O   0  0  0  0  0  0  0  0  0  0  0  0
    9.2625    1.0333    0.0000 C   0  0  0  0  0  0  0  0  0  0  0  0
    8.6125   -0.0917    0.0000 C   0  0  0  0  0  0  0  0  0  0  0  0
    7.9625    1.7833    0.0000 C   0  0  0  0  0  0  0  0  0  0  0  0
    5.5667   -0.5667    0.0000 C   0  0  0  0  0  0  0  0  0  0  0  0
   13.1500    0.1583    0.0000 C   0  0  0  0  0  0  0  0  0  0  0  0
   12.4000    1.4583    0.0000 C   0  0  0  0  0  0  0  0  0  0  0  0
    6.8500   -0.3417    0.0000 C   0  0  0  0  0  0  0  0  0  0  0  0
    5.7000   -1.3042    0.0000 C   0  0  0  0  0  0  0  0  0  0  0  0
    4.8667   -0.3042    0.0000 C   0  0  0  0  0  0  0  0  0  0  0  0
   13.5250    0.8083    0.0000 C   0  0  0  0  0  0  0  0  0  0  0  0
   13.1500    1.4583    0.0000 C   0  0  0  0  0  0  0  0  0  0  0  0
    4.2917   -0.7917    0.0000 C   0  0  0  0  0  0  0  0  0  0  0  0
    5.1250   -1.7875    0.0000 C   0  0  0  0  0  0  0  0  0  0  0  0
    4.4167   -1.5292    0.0000 C   0  0  0  0  0  0  0  0  0  0  0  0
  2  3  1  0  0  0  0
  3 15  1  0  0  0  0
  4 11  1  0  0  0  0
  4  3  2  0  0  0  0
  5  1  1  0  0  0  0
  6  1  1  0  0  0  0
  7  1  2  0  0  0  0
  8  5  1  0  0  0  0
  9 22  1  0  0  0  0
 10  4  1  0  0  0  0
 11 12  2  0  0  0  0
 12  9  1  0  0  0  0
 13  6  1  0  0  0  0
 14  7  1  0  0  0  0
 14 13  2  0  0  0  0
 15 24  2  0  0  0  0
 16  2  1  0  0  0  0
 17  2  2  0  0  0  0
 18 10  1  0  0  0  0
 19  8  1  0  0  0  0
 20  8  1  0  0  0  0
 21  5  2  0  0  0  0
 22 20  1  0  0  0  0
 23 19  1  0  0  0  0
 23  9  1  0  0  0  0
 24 12  1  0  0  0  0
 25 18  1  0  0  0  0
 26 13  1  0  0  0  0
 27 14  1  0  0  0  0
 28 18  1  0  0  0  0
 29 25  2  0  0  0  0
 30 25  1  0  0  0  0
 31 26  2  0  0  0  0
 31 32  1  0  0  0  0
 32 27  2  0  0  0  0
 33 30  2  0  0  0  0
 34 29  1  0  0  0  0
 34 35  2  0  0  0  0
 35 33  1  0  0  0  0
M  CHG  2   2   1  16  -1
M  END
>  <ID>
7933371

>  <Supplier>
ChemBridge

>  <clogP>
4.413000000000000e+000

>  <RB>
5

>  <tPSA>
9.186000000000000e+001

>  <Hacc>
4

>  <Hdon>
1

>  <LogSw>
-6.398000000000000e+000

>  <Group>
1

>  <Core>
158

$$$$
9133498
 OpenBabel03312015312D

 17 18  0  0  0  0  0  0  0  0999 V2000
    2.5917    1.9333    0.0000 C   0  0  0  0  0  0  0  0  0  0  0  0
    1.9417    1.5583    0.0000 N   0  0  0  0  0  0  0  0  0  0  0  0
    5.1917    0.4333    0.0000 C   0  0  0  0  0  0  0  0  0  0  0  0
    3.2417    1.5583    0.0000 C   0  0  0  0  0  0  0  0  0  0  0  0
    4.5417    0.8083    0.0000 C   0  0  0  0  0  0  0  0  0  0  0  0
    2.5917    2.6833    0.0000 O   0  0  0  0  0  0  0  0  0  0  0  0
    5.1917   -0.3167    0.0000 O   0  0  0  0  0  0  0  0  0  0  0  0
    3.8917    1.9333    0.0000 C   0  0  0  0  0  0  0  0  0  0  0  0
    3.2417    0.8083    0.0000 C   0  0  0  0  0  0  0  0  0  0  0  0
    3.8917    0.4333    0.0000 C   0  0  0  0  0  0  0  0  0  0  0  0
    4.5417    1.5583    0.0000 C   0  0  0  0  0  0  0  0  0  0  0  0
    5.8417    0.8083    0.0000 O   0  0  0  0  0  0  0  0  0  0  0  0
    1.2625    1.8625    0.0000 C   0  0  0  0  0  0  0  0  0  0  0  0
    1.8667    0.8125    0.0000 C   0  0  0  0  0  0  0  0  0  0  0  0
    6.4917    0.4333    0.0000 C   0  0  0  0  0  0  0  0  0  0  0  0
    1.1292    0.6583    0.0000 C   0  0  0  0  0  0  0  0  0  0  0  0
    0.7542    1.3083    0.0000 C   0  0  0  0  0  0  0  0  0  0  0  0
  2  1  1  0  0  0  0
  3  5  1  0  0  0  0
  4  1  1  0  0  0  0
  5 10  2  0  0  0  0
  6  1  2  0  0  0  0
  7  3  2  0  0  0  0
  8  4  1  0  0  0  0
  9  4  2  0  0  0  0
 10  9  1  0  0  0  0
 11  8  2  0  0  0  0
 11  5  1  0  0  0  0
 12  3  1  0  0  0  0
 13  2  1  0  0  0  0
 14  2  1  0  0  0  0
 15 12  1  0  0  0  0
 16 14  1  0  0  0  0
 16 17  1  0  0  0  0
 17 13  1  0  0  0  0
M  END
>  <ID>
9133498

>  <Supplier>
ChemBridge

>  <clogP>
1.348000000000000e+000

>  <RB>
2

>  <tPSA>
4.661000000000000e+001

>  <Hacc>
3

>  <Hdon>
0

>  <LogSw>
-2.053000000000000e+000

>  <Group>
2

$$$$
9133499
 OpenBabel03312015312D

 23 24  0  0  0  0  0  0  0  0999 V2000
    1.3167    1.9750    0.0000 S   0  0  0  0  0  0  0  0  0  0  0  0
    5.8667    0.8500    0.0000 N   0  0  0  0  0  0  0  0  0  0  0  0
    5.2167    0.4750    0.0000 C   0  0  0  0  0  0  0  0  0  0  0  0
    1.9667    1.6000    0.0000 C   0  0  0  0  0  0  0  0  0  0  0  0
    1.5125    2.7083    0.0000 N   0  0  0  0  0  0  0  0  0  0  0  0
    0.6167    2.2333    0.0000 O   0  0  0  0  0  0  0  0  0  0  0  0
    1.0042    1.2958    0.0000 O   0  0  0  0  0  0  0  0  0  0  0  0
    5.2167   -0.2750    0.0000 O   0  0  0  0  0  0  0  0  0  0  0  0
    4.5667    0.8500    0.0000 C   0  0  0  0  0  0  0  0  0  0  0  0
    1.9667    0.8500    0.0000 C   0  0  0  0  0  0  0  0  0  0  0  0
    2.6167    1.9750    0.0000 C   0  0  0  0  0  0  0  0  0  0  0  0
    3.2667    0.8500    0.0000 C   0  0  0  0  0  0  0  0  0  0  0  0
    3.9167    0.4750    0.0000 C   0  0  0  0  0  0  0  0  0  0  0  0
    2.6167    0.4750    0.0000 C   0  0  0  0  0  0  0  0  0  0  0  0
    3.2667    1.6000    0.0000 C   0  0  0  0  0  0  0  0  0  0  0  0
    6.4875    0.4250    0.0000 C   0  0  0  0  0  0  0  0  0  0  0  0
    5.8125    1.5958    0.0000 C   0  0  0  0  0  0  0  0  0  0  0  0
    0.9792    3.2333    0.0000 C   0  0  0  0  0  0  0  0  0  0  0  0
    2.2375    2.8958    0.0000 C   0  0  0  0  0  0  0  0  0  0  0  0
    6.3625    2.1083    0.0000 C   0  0  0  0  0  0  0  0  0  0  0  0
    7.2042    0.6500    0.0000 C   0  0  0  0  0  0  0  0  0  0  0  0
    7.4792    1.3458    0.0000 C   0  0  0  0  0  0  0  0  0  0  0  0
    7.1042    1.9958    0.0000 C   0  0  0  0  0  0  0  0  0  0  0  0
  2  3  1  0  0  0  0
  3  9  1  0  0  0  0
  4  1  1  0  0  0  0
  5  1  1  0  0  0  0
  6  1  2  0  0  0  0
  7  1  2  0  0  0  0
  8  3  2  0  0  0  0
  9 13  1  0  0  0  0
 10  4  2  0  0  0  0
 11  4  1  0  0  0  0
 12 15  1  0  0  0  0
 13 12  1  0  0  0  0
 14 10  1  0  0  0  0
 14 12  2  0  0  0  0
 15 11  2  0  0  0  0
 16  2  1  0  0  0  0
 17  2  1  0  0  0  0
 18  5  1  0  0  0  0
 19  5  1  0  0  0  0
 20 17  1  0  0  0  0
 21 16  1  0  0  0  0
 22 21  1  0  0  0  0
 22 23  1  0  0  0  0
 23 20  1  0  0  0  0
M  END
>  <ID>
9133499

>  <Supplier>
ChemBridge

>  <clogP>
1.832000000000000e+000

>  <RB>
4

>  <tPSA>
5.769000000000000e+001

>  <Hacc>
4

>  <Hdon>
0

>  <LogSw>
-3.233000000000000e+000

>  <Group>
2

>  <Core>
484

$$$$
7933375
 OpenBabel03312015312D

 27 31  0  0  0  0  0  0  0  0999 V2000
    1.6000    1.2250    0.0000 C   0  0  0  0  0  0  0  0  0  0  0  0
    1.9750    1.8750    0.0000 C   0  0  0  0  0  0  0  0  0  0  0  0
    2.7042    1.7208    0.0000 C   0  0  0  0  0  0  0  0  0  0  0  0
    2.7875    0.9750    0.0000 C   0  0  0  0  0  0  0  0  0  0  0  0
    3.4667    0.6708    0.0000 N   0  0  0  0  0  0  0  0  0  0  0  0
    2.1000    0.6708    0.0000 S   0  0  0  0  0  0  0  0  0  0  0  0
    4.0792    1.1083    0.0000 C   0  0  0  0  0  0  0  0  0  0  0  0
    4.0000    1.8583    0.0000 C   0  0  0  0  0  0  0  0  0  0  0  0
    3.3167    2.1625    0.0000 C   0  0  0  0  0  0  0  0  0  0  0  0
    0.8500    1.2250    0.0000 C   0  0  0  0  0  0  0  0  0  0  0  0
    1.6000    2.5250    0.0000 N   0  0  0  0  0  0  0  0  0  0  0  0
    4.7625    0.8083    0.0000 N   0  0  0  0  0  0  0  0  0  0  0  0
    0.4750    1.8750    0.0000 N   0  0  0  0  0  0  0  0  0  0  0  0
    4.6042    2.2958    0.0000 C   0  0  0  0  0  0  0  0  0  0  0  0
    0.8500    2.5250    0.0000 C   0  0  0  0  0  0  0  0  0  0  0  0
    4.5292    3.0458    0.0000 O   0  0  0  0  0  0  0  0  0  0  0  0
    3.2375    2.9083    0.0000 C   0  0  0  0  0  0  0  0  0  0  0  0
    3.8417    3.3458    0.0000 C   0  0  3  0  0  0  0  0  0  0  0  0
    0.4750    0.5750    0.0000 O   0  0  0  0  0  0  0  0  0  0  0  0
    6.1292    0.1958    0.0000 O   0  0  0  0  0  0  0  0  0  0  0  0
    5.3667    1.2458    0.0000 C   0  0  0  0  0  0  0  0  0  0  0  0
    4.8417    0.0583    0.0000 C   0  0  0  0  0  0  0  0  0  0  0  0
    4.2625    3.9708    0.0000 C   0  0  0  0  0  0  0  0  0  0  0  0
    3.3042    3.8708    0.0000 C   0  0  0  0  0  0  0  0  0  0  0  0
    5.5292   -0.2417    0.0000 C   0  0  0  0  0  0  0  0  0  0  0  0
    6.0542    0.9458    0.0000 C   0  0  0  0  0  0  0  0  0  0  0  0
    3.9292    4.6375    0.0000 C   0  0  0  0  0  0  0  0  0  0  0  0
  2  1  2  0  0  0  0
  3  2  1  0  0  0  0
  4  6  1  0  0  0  0
  4  3  2  0  0  0  0
  5  4  1  0  0  0  0
  6  1  1  0  0  0  0
  7  5  2  0  0  0  0
  7  8  1  0  0  0  0
  8  9  2  0  0  0  0
  9  3  1  0  0  0  0
 10  1  1  0  0  0  0
 11  2  1  0  0  0  0
 11 15  2  0  0  0  0
 12  7  1  0  0  0  0
 13 10  1  0  0  0  0
 14  8  1  0  0  0  0
 14 16  1  0  0  0  0
 15 13  1  0  0  0  0
 16 18  1  0  0  0  0
 17  9  1  0  0  0  0
 18 17  1  0  0  0  0
 19 10  2  0  0  0  0
 20 25  1  0  0  0  0
 20 26  1  0  0  0  0
 21 12  1  0  0  0  0
 22 12  1  0  0  0  0
 23 18  1  0  0  0  0
 24 18  1  0  0  0  0
 25 22  1  0  0  0  0
 26 21  1  0  0  0  0
 27 23  1  0  0  0  0
M  END
>  <ID>
7933375

>  <Supplier>
ChemBridge

>  <clogP>
1.638000000000000e+000

>  <RB>
1

>  <tPSA>
8.034000000000000e+001

>  <Hacc>
5

>  <Hdon>
1

>  <LogSw>
-3.416000000000000e+000

>  <Group>
2

$$$$
7933374
 OpenBabel03312015312D

 27 28  0  0  0  0  0  0  0  0999 V2000
    6.5167    3.1833    0.0000 S   0  0  0  0  0  0  0  0  0  0  0  0
    6.1417    2.5333    0.0000 N   0  0  0  0  0  0  0  0  0  0  0  0
    5.3917    2.5333    0.0000 C   0  0  0  0  0  0  0  0  0  0  0  0
    5.0167    1.8833    0.0000 C   0  0  0  0  0  0  0  0  0  0  0  0
    2.7667    1.8833    0.0000 N   0  0  0  0  0  0  0  0  0  0  0  0
    4.2667    1.8833    0.0000 N   0  0  0  0  0  0  0  0  0  0  0  0
    2.0167    1.8833    0.0000 C   0  0  0  0  0  0  0  0  0  0  0  0
    6.5167    1.8833    0.0000 C   0  0  0  0  0  0  0  0  0  0  0  0
    6.1417    1.2333    0.0000 C   0  0  0  0  0  0  0  0  0  0  0  0
    5.9875    3.7125    0.0000 O   0  0  0  0  0  0  0  0  0  0  0  0
    7.1292    2.7583    0.0000 O   0  0  0  0  0  0  0  0  0  0  0  0
    6.5167    0.5833    0.0000 C   0  0  0  0  0  0  0  0  0  0  0  0
    3.1417    1.2333    0.0000 C   0  0  0  0  0  0  0  0  0  0  0  0
    3.1417    2.5333    0.0000 C   0  0  0  0  0  0  0  0  0  0  0  0
    3.8917    1.2333    0.0000 C   0  0  0  0  0  0  0  0  0  0  0  0
    3.8917    2.5333    0.0000 C   0  0  0  0  0  0  0  0  0  0  0  0
    7.2667    0.5833    0.0000 C   0  0  0  0  0  0  0  0  0  0  0  0
    1.6417    1.2333    0.0000 O   0  0  0  0  0  0  0  0  0  0  0  0
    5.3917    1.2333    0.0000 O   0  0  0  0  0  0  0  0  0  0  0  0
    7.2667    1.8833    0.0000 C   0  0  0  0  0  0  0  0  0  0  0  0
    7.6417    1.2333    0.0000 C   0  0  0  0  0  0  0  0  0  0  0  0
    7.0000    3.7583    0.0000 C   0  0  0  0  0  0  0  0  0  0  0  0
    1.6417    2.5333    0.0000 O   0  0  0  0  0  0  0  0  0  0  0  0
    7.6417   -0.0667    0.0000 Br  0  0  0  0  0  0  0  0  0  0  0  0
    6.1417   -0.0667    0.0000 C   0  0  0  0  0  0  0  0  0  0  0  0
    0.8917    2.5333    0.0000 C   0  0  0  0  0  0  0  0  0  0  0  0
    0.5167    3.1833    0.0000 C   0  0  0  0  0  0  0  0  0  0  0  0
  2  1  1  0  0  0  0
  3  2  1  0  0  0  0
  4  3  1  0  0  0  0
  5 14  1  0  0  0  0
  6  4  1  0  0  0  0
  7  5  1  0  0  0  0
  8  2  1  0  0  0  0
  9  8  2  0  0  0  0
 10  1  2  0  0  0  0
 11  1  2  0  0  0  0
 12  9  1  0  0  0  0
 12 17  2  0  0  0  0
 13 15  1  0  0  0  0
 13  5  1  0  0  0  0
 14 16  1  0  0  0  0
 15  6  1  0  0  0  0
 16  6  1  0  0  0  0
 17 21  1  0  0  0  0
 18  7  2  0  0  0  0
 19  4  2  0  0  0  0
 20  8  1  0  0  0  0
 21 20  2  0  0  0  0
 22  1  1  0  0  0  0
 23  7  1  0  0  0  0
 24 17  1  0  0  0  0
 25 12  1  0  0  0  0
 26 23  1  0  0  0  0
 27 26  1  0  0  0  0
M  END
>  <ID>
7933374

>  <Supplier>
ChemBridge

>  <clogP>
3.702000000000000e+000

>  <RB>
3

>  <tPSA>
8.723000000000000e+001

>  <Hacc>
5

>  <Hdon>
0

>  <LogSw>
-5.732000000000000e+000

>  <Group>
1

>  <Core>
084

$$$$
7917843
 OpenBabel03312015312D

 32 35  0  0  0  0  0  0  0  0999 V2000
    6.9000    2.0958    0.0000 C   0  0  0  0  0  0  0  0  0  0  0  0
    7.3667    2.6833    0.0000 N   0  0  0  0  0  0  0  0  0  0  0  0
    7.0917    1.3708    0.0000 S   0  0  0  0  0  0  0  0  0  0  0  0
    6.2000    2.3625    0.0000 C   0  0  0  0  0  0  0  0  0  0  0  0
    6.9625    3.3083    0.0000 C   0  0  0  0  0  0  0  0  0  0  0  0
    6.2375    3.1125    0.0000 O   0  0  0  0  0  0  0  0  0  0  0  0
    7.2292    4.0042    0.0000 C   0  0  0  0  0  0  0  0  0  0  0  0
    7.9542    4.1917    0.0000 S   0  0  0  0  0  0  0  0  0  0  0  0
    6.3542    1.2458    0.0000 O   0  0  0  0  0  0  0  0  0  0  0  0
    7.1542    0.6250    0.0000 O   0  0  0  0  0  0  0  0  0  0  0  0
    7.8417    1.3708    0.0000 C   0  0  0  0  0  0  0  0  0  0  0  0
    2.9000    3.3208    0.0000 C   0  0  0  0  0  0  0  0  0  0  0  0
    5.5667    1.9583    0.0000 N   0  0  0  0  0  0  0  0  0  0  0  0
    6.8250    4.6292    0.0000 C   0  0  0  0  0  0  0  0  0  0  0  0
    2.2667    2.9083    0.0000 C   0  0  0  0  0  0  0  0  0  0  0  0
    7.9917    4.9417    0.0000 C   0  0  0  0  0  0  0  0  0  0  0  0
    3.5667    2.9833    0.0000 C   0  0  0  0  0  0  0  0  0  0  0  0
    7.2917    5.2167    0.0000 C   0  0  0  0  0  0  0  0  0  0  0  0
    2.3042    2.1583    0.0000 C   0  0  0  0  0  0  0  0  0  0  0  0
    3.6042    2.2333    0.0000 C   0  0  0  0  0  0  0  0  0  0  0  0
    2.9750    1.8208    0.0000 C   0  0  0  0  0  0  0  0  0  0  0  0
    2.8542    4.0625    0.0000 O   0  0  0  0  0  0  0  0  0  0  0  0
    4.9042    2.2958    0.0000 C   0  0  0  0  0  0  0  0  0  0  0  0
    1.6000    3.2500    0.0000 O   0  0  0  0  0  0  0  0  0  0  0  0
    8.2167    0.7208    0.0000 C   0  0  0  0  0  0  0  0  0  0  0  0
    8.2167    2.0208    0.0000 C   0  0  0  0  0  0  0  0  0  0  0  0
    4.2750    1.8958    0.0000 C   0  0  0  0  0  0  0  0  0  0  0  0
    3.4875    4.4667    0.0000 C   0  0  0  0  0  0  0  0  0  0  0  0
    0.9667    2.8458    0.0000 C   0  0  0  0  0  0  0  0  0  0  0  0
    8.9667    0.7208    0.0000 C   0  0  0  0  0  0  0  0  0  0  0  0
    8.9667    2.0208    0.0000 C   0  0  0  0  0  0  0  0  0  0  0  0
    9.3417    1.3708    0.0000 C   0  0  0  0  0  0  0  0  0  0  0  0
  2  1  1  0  0  0  0
  3  1  1  0  0  0  0
  4  1  2  0  0  0  0
  5  2  2  0  0  0  0
  5  6  1  0  0  0  0
  6  4  1  0  0  0  0
  7  5  1  0  0  0  0
  8  7  1  0  0  0  0
  9  3  2  0  0  0  0
 10  3  2  0  0  0  0
 11  3  1  0  0  0  0
 12 17  1  0  0  0  0
 12 15  2  0  0  0  0
 13  4  1  0  0  0  0
 14  7  2  0  0  0  0
 15 19  1  0  0  0  0
 16  8  1  0  0  0  0
 17 20  2  0  0  0  0
 18 14  1  0  0  0  0
 18 16  2  0  0  0  0
 19 21  2  0  0  0  0
 20 27  1  0  0  0  0
 21 20  1  0  0  0  0
 22 12  1  0  0  0  0
 23 13  1  0  0  0  0
 24 15  1  0  0  0  0
 25 11  2  0  0  0  0
 26 11  1  0  0  0  0
 27 23  1  0  0  0  0
 28 22  1  0  0  0  0
 29 24  1  0  0  0  0
 30 25  1  0  0  0  0
 31 26  2  0  0  0  0
 32 31  1  0  0  0  0
 32 30  2  0  0  0  0
M  END
>  <ID>
7917843

>  <Supplier>
ChemBridge

>  <clogP>
5.870000000000000e+000

>  <RB>
7

>  <tPSA>
9.066000000000004e+001

>  <Hacc>
6

>  <Hdon>
1

>  <LogSw>
-7.643000000000000e+000

>  <Group>
1

>  <Core>
260

$$$$
6461862
 OpenBabel03312015312D

 25 26  0  0  0  0  0  0  0  0999 V2000
    3.0292    1.4833    0.0000 C   0  0  0  0  0  0  0  0  0  0  0  0
    2.1792    1.2000    0.0000 C   0  0  0  0  0  0  0  0  0  0  0  0
    3.7042    0.8958    0.0000 C   0  0  0  0  0  0  0  0  0  0  0  0
   -3.0833    0.8208    0.0000 C   0  0  0  0  0  0  0  0  0  0  0  0
    3.9500   -0.3542    0.0000 C   0  0  0  0  0  0  0  0  0  0  0  0
   -3.0833    1.4958    0.0000 C   0  0  0  0  0  0  0  0  0  0  0  0
    1.9875    0.3333    0.0000 C   0  0  0  0  0  0  0  0  0  0  0  0
    3.9292   -1.1292    0.0000 C   0  0  0  0  0  0  0  0  0  0  0  0
    3.5042    0.0208    0.0000 C   0  0  0  0  0  0  0  0  0  0  0  0
   -2.5458    0.5708    0.0000 I   0  0  0  0  0  0  0  0  0  0  0  0
    2.6542   -0.2542    0.0000 C   0  0  0  0  0  0  0  0  0  0  0  0
    3.1042    2.0458    0.0000 O   0  0  0  0  0  0  0  0  0  0  0  0
    1.8292    1.5500    0.0000 O   0  0  0  0  0  0  0  0  0  0  0  0
   -2.3625    1.8708    0.0000 O   0  0  0  0  0  0  0  0  0  0  0  0
   -0.2125    1.3708    0.0000 O   0  0  0  0  0  0  0  0  0  0  0  0
    4.4292   -1.6167    0.0000 C   0  0  0  0  0  0  0  0  0  0  0  0
   -3.6625    0.4833    0.0000 C   0  0  0  0  0  0  0  0  0  0  0  0
   -3.6625    1.8333    0.0000 C   0  0  0  0  0  0  0  0  0  0  0  0
    1.1042    1.3500    0.0000 C   0  0  0  0  0  0  0  0  0  0  0  0
   -1.6625    1.4458    0.0000 C   0  0  0  0  0  0  0  0  0  0  0  0
   -0.8625    1.8958    0.0000 C   0  0  0  0  0  0  0  0  0  0  0  0
    0.5500    1.8958    0.0000 C   0  0  0  0  0  0  0  0  0  0  0  0
    3.6292    2.1958    0.0000 C   0  0  0  0  0  0  0  0  0  0  0  0
   -4.2333    1.4958    0.0000 C   0  0  0  0  0  0  0  0  0  0  0  0
   -4.2333    0.8208    0.0000 C   0  0  0  0  0  0  0  0  0  0  0  0
  2  1  2  0  0  0  0
  3  1  1  0  0  0  0
  4  6  2  0  0  0  0
  5  9  1  0  0  0  0
  6 14  1  0  0  0  0
  7  2  1  0  0  0  0
  8  5  2  0  0  0  0
  9  3  2  0  0  0  0
 10  4  1  0  0  0  0
 11  9  1  0  0  0  0
 11  7  2  0  0  0  0
 12  1  1  0  0  0  0
 13  2  1  0  0  0  0
 14 20  1  0  0  0  0
 15 22  1  0  0  0  0
 16  8  1  0  0  0  0
 17  4  1  0  0  0  0
 17 25  2  0  0  0  0
 18  6  1  0  0  0  0
 19 13  1  0  0  0  0
 20 21  1  0  0  0  0
 21 15  1  0  0  0  0
 22 19  1  0  0  0  0
 23 12  1  0  0  0  0
 24 18  2  0  0  0  0
 25 24  1  0  0  0  0
M  END
>  <ID>
6461862

>  <Supplier>
ChemBridge

>  <clogP>
5.780000000000000e+000

>  <RB>
9

>  <tPSA>
3.692000000000000e+001

>  <Hacc>
4

>  <Hdon>
0

>  <LogSw>
-7.447000000000000e+000

>  <Group>
1

>  <Core>
317

$$$$
6461861
 OpenBabel03312015312D

 20 20  0  0  0  0  0  0  0  0999 V2000
    7.8167   -3.7792    0.0000 N   0  0  0  0  0  0  0  0  0  0  0  0
    8.5292   -4.1875    0.0000 C   0  0  0  0  0  0  0  0  0  0  0  0
    7.1042   -4.1917    0.0000 C   0  0  0  0  0  0  0  0  0  0  0  0
    7.1042   -5.0167    0.0000 O   0  0  0  0  0  0  0  0  0  0  0  0
    5.6750   -4.1917    0.0000 O   0  0  0  0  0  0  0  0  0  0  0  0
    6.3875   -3.7792    0.0000 C   0  0  0  0  0  0  0  0  0  0  0  0
    8.5292   -5.0125    0.0000 C   0  0  0  0  0  0  0  0  0  0  0  0
    9.2417   -3.7750    0.0000 C   0  0  0  0  0  0  0  0  0  0  0  0
    4.9542   -3.7792    0.0000 C   0  0  0  0  0  0  0  0  0  0  0  0
    3.5292   -2.9542    0.0000 C   0  0  0  0  0  0  0  0  0  0  0  0
    4.9625   -2.9542    0.0000 C   0  0  0  0  0  0  0  0  0  0  0  0
    4.2500   -4.1917    0.0000 C   0  0  0  0  0  0  0  0  0  0  0  0
    3.5375   -3.7792    0.0000 C   0  0  0  0  0  0  0  0  0  0  0  0
    4.2500   -2.5417    0.0000 C   0  0  0  0  0  0  0  0  0  0  0  0
    2.8167   -2.5417    0.0000 O   0  0  0  0  0  0  0  0  0  0  0  0
    9.9542   -4.1875    0.0000 C   0  0  0  0  0  0  0  0  0  0  0  0
    9.2417   -2.9500    0.0000 C   0  0  0  0  0  0  0  0  0  0  0  0
    7.8167   -5.4292    0.0000 C   0  0  0  0  0  0  0  0  0  0  0  0
    9.2417   -5.4250    0.0000 C   0  0  0  0  0  0  0  0  0  0  0  0
    2.1000   -2.9500    0.0000 C   0  0  0  0  0  0  0  0  0  0  0  0
  2  1  1  0  0  0  0
  3  1  1  0  0  0  0
  4  3  2  0  0  0  0
  5  6  1  0  0  0  0
  6  3  1  0  0  0  0
  7  2  1  0  0  0  0
  8  2  1  0  0  0  0
  9  5  1  0  0  0  0
 10 13  1  0  0  0  0
 10 14  2  0  0  0  0
 11  9  2  0  0  0  0
 12  9  1  0  0  0  0
 13 12  2  0  0  0  0
 14 11  1  0  0  0  0
 15 10  1  0  0  0  0
 16  8  1  0  0  0  0
 17  8  1  0  0  0  0
 18  7  1  0  0  0  0
 19  7  1  0  0  0  0
 20 15  1  0  0  0  0
M  END
>  <ID>
6461861

>  <Supplier>
ChemBridge

>  <clogP>
3.600000000000000e+000

>  <RB>
4

>  <tPSA>
4.756000000000000e+001

>  <Hacc>
3

>  <Hdon>
1

>  <LogSw>
-4.311999999999999e+000

>  <Group>
2

>  <Core>
315

$$$$
5201083
 OpenBabel03312015312D

 32 35  0  0  0  0  0  0  0  0999 V2000
    2.6292   -4.3292    0.0000 N   0  0  0  0  0  0  0  0  0  0  0  0
    3.5292   -3.8000    0.0000 C   0  0  0  0  0  0  0  0  0  0  0  0
    1.6667   -3.8000    0.0000 N   0  0  0  0  0  0  0  0  0  0  0  0
    3.5292   -2.6542    0.0000 C   0  0  0  0  0  0  0  0  0  0  0  0
    1.6667   -2.6542    0.0000 C   0  0  0  0  0  0  0  0  0  0  0  0
    4.4542   -4.3292    0.0000 N   0  0  0  0  0  0  0  0  0  0  0  0
    7.3792   -2.7000    0.0000 C   0  0  0  0  0  0  0  0  0  0  0  0
    2.6292   -5.4000    0.0000 C   0  0  0  0  0  0  0  0  0  0  0  0
    5.4667   -2.7000    0.0000 N   0  0  0  0  0  0  0  0  0  0  0  0
    4.5167   -2.1542    0.0000 C   0  0  0  0  0  0  0  0  0  0  0  0
    9.2667   -2.7000    0.0000 N   0  0  0  0  0  0  0  0  0  0  0  0
    6.4292   -2.1542    0.0000 N   0  0  0  0  0  0  0  0  0  0  0  0
   10.2292   -2.1542    0.0000 C   0  0  0  0  0  0  0  0  0  0  0  0
    7.3792   -3.8000    0.0000 O   0  0  0  0  0  0  0  0  0  0  0  0
    8.3375   -2.1542    0.0000 C   0  0  0  0  0  0  0  0  0  0  0  0
   11.1792   -2.7000    0.0000 C   0  0  0  0  0  0  0  0  0  0  0  0
    0.7667   -2.1542    0.0000 C   0  0  0  0  0  0  0  0  0  0  0  0
    5.3875   -3.7542    0.0000 C   0  0  0  0  0  0  0  0  0  0  0  0
    4.4542   -5.3542    0.0000 C   0  0  0  0  0  0  0  0  0  0  0  0
    3.5042   -5.9542    0.0000 C   0  0  0  0  0  0  0  0  0  0  0  0
    1.6500   -5.9292    0.0000 C   0  0  0  0  0  0  0  0  0  0  0  0
   10.2292   -1.0292    0.0000 C   0  0  0  0  0  0  0  0  0  0  0  0
   11.1875   -3.7792    0.0000 C   0  0  0  0  0  0  0  0  0  0  0  0
   12.1375   -2.1542    0.0000 C   0  0  0  0  0  0  0  0  0  0  0  0
    6.2667   -4.2542    0.0000 C   0  0  0  0  0  0  0  0  0  0  0  0
    5.3667   -5.9292    0.0000 C   0  0  0  0  0  0  0  0  0  0  0  0
    1.6500   -7.0000    0.0000 C   0  0  0  0  0  0  0  0  0  0  0  0
   11.1792   -0.5000    0.0000 C   0  0  0  0  0  0  0  0  0  0  0  0
   12.1375   -1.0292    0.0000 C   0  0  0  0  0  0  0  0  0  0  0  0
    3.5042   -7.0000    0.0000 C   0  0  0  0  0  0  0  0  0  0  0  0
    6.2667   -5.4000    0.0000 C   0  0  0  0  0  0  0  0  0  0  0  0
    2.5500   -7.5542    0.0000 C   0  0  0  0  0  0  0  0  0  0  0  0
  2  1  1  0  0  0  0
  3  1  1  0  0  0  0
  4  2  2  0  0  0  0
  5  3  2  0  0  0  0
  5  4  1  0  0  0  0
  6  2  1  0  0  0  0
  7 12  1  0  0  0  0
  8  1  1  0  0  0  0
  9 10  2  0  0  0  0
 10  4  1  0  0  0  0
 11 15  1  0  0  0  0
 12  9  1  0  0  0  0
 13 11  1  0  0  0  0
 14  7  2  0  0  0  0
 15  7  1  0  0  0  0
 16 13  1  0  0  0  0
 17  5  1  0  0  0  0
 18  6  1  0  0  0  0
 19  6  1  0  0  0  0
 20  8  2  0  0  0  0
 21  8  1  0  0  0  0
 22 13  2  0  0  0  0
 23 16  1  0  0  0  0
 24 16  2  0  0  0  0
 25 18  1  0  0  0  0
 26 19  1  0  0  0  0
 27 21  2  0  0  0  0
 28 22  1  0  0  0  0
 29 28  2  0  0  0  0
 29 24  1  0  0  0  0
 30 20  1  0  0  0  0
 31 26  1  0  0  0  0
 31 25  1  0  0  0  0
 32 27  1  0  0  0  0
 32 30  2  0  0  0  0
M  END
>  <ID>
5201083

>  <Supplier>
ChemBridge

>  <clogP>
4.790000000000000e+000

>  <RB>
7

>  <tPSA>
7.455000000000000e+001

>  <Hacc>
4

>  <Hdon>
2

>  <LogSw>
-6.429000000000000e+000

>  <Group>
3

>  <Core>
216

$$$$
7960885
 OpenBabel03312015312D

 27 28  0  0  0  0  0  0  0  0999 V2000
    7.3792    4.0917    0.0000 S   0  0  0  0  0  0  0  0  0  0  0  0
    2.8292    2.2333    0.0000 C   0  0  0  0  0  0  0  0  0  0  0  0
    4.7792    1.8583    0.0000 C   0  0  0  0  0  0  0  0  0  0  0  0
    4.1292    2.2333    0.0000 N   0  0  0  0  0  0  0  0  0  0  0  0
    3.4792    1.8583    0.0000 C   0  0  0  0  0  0  0  0  0  0  0  0
    2.8292    2.9833    0.0000 C   0  0  0  0  0  0  0  0  0  0  0  0
    7.3792    3.3583    0.0000 N   0  0  0  0  0  0  0  0  0  0  0  0
    8.1042    4.2917    0.0000 O   0  0  0  0  0  0  0  0  0  0  0  0
    7.2500    4.8375    0.0000 O   0  0  0  0  0  0  0  0  0  0  0  0
    5.4292    2.2333    0.0000 C   0  0  0  0  0  0  0  0  0  0  0  0
    4.7792    1.1083    0.0000 O   0  0  0  0  0  0  0  0  0  0  0  0
    3.4792    3.3583    0.0000 O   0  0  0  0  0  0  0  0  0  0  0  0
    2.1792    3.3583    0.0000 N   0  0  0  0  0  0  0  0  0  0  0  0
    6.0792    1.8583    0.0000 C   0  0  0  0  0  0  0  0  0  0  0  0
    5.4292    2.9833    0.0000 C   0  0  0  0  0  0  0  0  0  0  0  0
    6.7292    2.9833    0.0000 C   0  0  0  0  0  0  0  0  0  0  0  0
    6.6292    4.0292    0.0000 C   0  0  0  0  0  0  0  0  0  0  0  0
    6.7292    2.2333    0.0000 C   0  0  0  0  0  0  0  0  0  0  0  0
    6.0792    3.3583    0.0000 C   0  0  0  0  0  0  0  0  0  0  0  0
    2.1792    1.8583    0.0000 C   0  0  0  0  0  0  0  0  0  0  0  0
    3.4792    1.1083    0.0000 C   0  0  0  0  0  0  0  0  0  0  0  0
    1.5292    5.2167    0.0000 O   0  0  0  0  0  0  0  0  0  0  0  0
    2.1792    4.0917    0.0000 C   0  0  0  0  0  0  0  0  0  0  0  0
    1.5292    4.4667    0.0000 C   0  0  0  0  0  0  0  0  0  0  0  0
    0.8792    5.5917    0.0000 C   0  0  0  0  0  0  0  0  0  0  0  0
    2.1792    1.1083    0.0000 C   0  0  0  0  0  0  0  0  0  0  0  0
    2.8292    0.7333    0.0000 C   0  0  0  0  0  0  0  0  0  0  0  0
  2  5  1  0  0  0  0
  3 10  1  0  0  0  0
  4  3  1  0  0  0  0
  5  4  1  0  0  0  0
  6  2  1  0  0  0  0
  7  1  1  0  0  0  0
  8  1  2  0  0  0  0
  9  1  2  0  0  0  0
 10 15  1  0  0  0  0
 11  3  2  0  0  0  0
 12  6  2  0  0  0  0
 13  6  1  0  0  0  0
 14 18  1  0  0  0  0
 14 10  2  0  0  0  0
 15 19  2  0  0  0  0
 16  7  1  0  0  0  0
 17  1  1  0  0  0  0
 18 16  2  0  0  0  0
 19 16  1  0  0  0  0
 20  2  2  0  0  0  0
 21  5  2  0  0  0  0
 22 24  1  0  0  0  0
 23 13  1  0  0  0  0
 24 23  1  0  0  0  0
 25 22  1  0  0  0  0
 26 27  2  0  0  0  0
 26 20  1  0  0  0  0
 27 21  1  0  0  0  0
M  END
>  <ID>
7960885

>  <Supplier>
ChemBridge

>  <clogP>
1.058000000000000e+000

>  <RB>
6

>  <tPSA>
1.136000000000000e+002

>  <Hacc>
5

>  <Hdon>
3

>  <LogSw>
-2.957000000000000e+000

>  <Group>
1

>  <Core>
141

$$$$
7921727
 OpenBabel03312015312D

 28 31  0  0  0  0  0  0  0  0999 V2000
    5.4542    3.6958    0.0000 C   0  0  0  0  0  0  0  0  0  0  0  0
    6.7542    2.9458    0.0000 N   0  0  0  0  0  0  0  0  0  0  0  0
    6.1042    4.0625    0.0000 C   0  0  0  0  0  0  0  0  0  0  0  0
    6.1042    2.5708    0.0000 C   0  0  0  0  0  0  0  0  0  0  0  0
    5.4542    2.9458    0.0000 C   0  0  0  0  0  0  0  0  0  0  0  0
    6.7542    3.6958    0.0000 C   0  0  0  0  0  0  0  0  0  0  0  0
    4.8042    4.0625    0.0000 C   0  0  0  0  0  0  0  0  0  0  0  0
    0.3750    3.4458    0.0000 N   0  0  0  0  0  0  0  0  0  0  0  0
    1.5542    3.6958    0.0000 N   0  0  0  0  0  0  0  0  0  0  0  0
    0.8750    4.0000    0.0000 C   0  0  0  0  0  0  0  0  0  0  0  0
    6.1042    4.8125    0.0000 C   0  0  0  0  0  0  0  0  0  0  0  0
    0.7500    2.7958    0.0000 C   0  0  0  0  0  0  0  0  0  0  0  0
    1.4792    2.9458    0.0000 C   0  0  0  0  0  0  0  0  0  0  0  0
    4.8042    4.8125    0.0000 O   0  0  0  0  0  0  0  0  0  0  0  0
    6.1042    1.8208    0.0000 C   0  0  0  0  0  0  0  0  0  0  0  0
    6.1042    0.3208    0.0000 N   0  0  0  0  0  0  0  0  0  0  0  0
    7.4042    4.0625    0.0000 C   0  0  0  0  0  0  0  0  0  0  0  0
    4.1542    3.6958    0.0000 N   0  0  0  0  0  0  0  0  0  0  0  0
    6.7542    5.1875    0.0000 C   0  0  0  0  0  0  0  0  0  0  0  0
    7.4042    4.8125    0.0000 C   0  0  0  0  0  0  0  0  0  0  0  0
    6.7542    5.9375    0.0000 Br  0  0  0  0  0  0  0  0  0  0  0  0
    2.2042    4.0625    0.0000 C   0  0  0  0  0  0  0  0  0  0  0  0
    2.8542    3.6958    0.0000 C   0  0  0  0  0  0  0  0  0  0  0  0
    6.7542    0.6958    0.0000 C   0  0  0  0  0  0  0  0  0  0  0  0
    5.4542    0.6958    0.0000 C   0  0  0  0  0  0  0  0  0  0  0  0
    3.5042    4.0625    0.0000 C   0  0  0  0  0  0  0  0  0  0  0  0
    6.7542    1.4458    0.0000 C   0  0  0  0  0  0  0  0  0  0  0  0
    5.4542    1.4458    0.0000 C   0  0  0  0  0  0  0  0  0  0  0  0
  2  4  2  0  0  0  0
  2  6  1  0  0  0  0
  3  1  1  0  0  0  0
  4  5  1  0  0  0  0
  5  1  2  0  0  0  0
  6  3  2  0  0  0  0
  7  1  1  0  0  0  0
  8 10  2  0  0  0  0
  8 12  1  0  0  0  0
  9 22  1  0  0  0  0
 10  9  1  0  0  0  0
 11  3  1  0  0  0  0
 12 13  2  0  0  0  0
 13  9  1  0  0  0  0
 14  7  2  0  0  0  0
 15  4  1  0  0  0  0
 16 25  2  0  0  0  0
 16 24  1  0  0  0  0
 17  6  1  0  0  0  0
 17 20  2  0  0  0  0
 18  7  1  0  0  0  0
 19 11  2  0  0  0  0
 20 19  1  0  0  0  0
 21 19  1  0  0  0  0
 22 23  1  0  0  0  0
 23 26  1  0  0  0  0
 24 27  2  0  0  0  0
 25 28  1  0  0  0  0
 26 18  1  0  0  0  0
 27 15  1  0  0  0  0
 28 15  2  0  0  0  0
M  END
>  <ID>
7921727

>  <Supplier>
ChemBridge

>  <clogP>
3.350000000000000e+000

>  <RB>
6

>  <tPSA>
7.270000000000000e+001

>  <Hacc>
4

>  <Hdon>
1

>  <LogSw>
-5.241000000000001e+000

>  <Group>
1

>  <Core>
120

$$$$
7917847
 OpenBabel03312015312D

 28 31  0  0  0  0  0  0  0  0999 V2000
    4.2250    2.5208    0.0000 C   0  0  0  0  0  0  0  0  0  0  0  0
    4.9375    2.7458    0.0000 N   0  0  0  0  0  0  0  0  0  0  0  0
    3.7792    3.1208    0.0000 C   0  0  0  0  0  0  0  0  0  0  0  0
    3.9917    1.8000    0.0000 S   0  0  0  0  0  0  0  0  0  0  0  0
    4.2250    3.7333    0.0000 O   0  0  0  0  0  0  0  0  0  0  0  0
    4.9375    3.4958    0.0000 C   0  0  0  0  0  0  0  0  0  0  0  0
    3.0292    3.1208    0.0000 N   0  0  0  0  0  0  0  0  0  0  0  0
    5.5417    3.9375    0.0000 C   0  0  0  0  0  0  0  0  0  0  0  0
    0.7792    3.1208    0.0000 C   0  0  0  0  0  0  0  0  0  0  0  0
    6.2542    3.7083    0.0000 S   0  0  0  0  0  0  0  0  0  0  0  0
    3.3042    2.0958    0.0000 O   0  0  0  0  0  0  0  0  0  0  0  0
    3.6417    1.1375    0.0000 O   0  0  0  0  0  0  0  0  0  0  0  0
    4.6167    1.3958    0.0000 C   0  0  0  0  0  0  0  0  0  0  0  0
    2.6542    3.7708    0.0000 C   0  0  0  0  0  0  0  0  0  0  0  0
    2.6542    2.4708    0.0000 C   0  0  0  0  0  0  0  0  0  0  0  0
    1.5292    3.1208    0.0000 C   0  0  0  0  0  0  0  0  0  0  0  0
    5.5417    4.6792    0.0000 C   0  0  0  0  0  0  0  0  0  0  0  0
    6.7000    4.3042    0.0000 C   0  0  0  0  0  0  0  0  0  0  0  0
    0.4042    2.4708    0.0000 O   0  0  0  0  0  0  0  0  0  0  0  0
    6.2542    4.9042    0.0000 C   0  0  0  0  0  0  0  0  0  0  0  0
    1.9042    3.7708    0.0000 C   0  0  0  0  0  0  0  0  0  0  0  0
    1.9042    2.4708    0.0000 C   0  0  0  0  0  0  0  0  0  0  0  0
    0.4042    3.7708    0.0000 N   0  0  0  0  0  0  0  0  0  0  0  0
    4.5792    0.6458    0.0000 C   0  0  0  0  0  0  0  0  0  0  0  0
    5.2917    1.7333    0.0000 C   0  0  0  0  0  0  0  0  0  0  0  0
    5.9167    1.3250    0.0000 C   0  0  0  0  0  0  0  0  0  0  0  0
    5.2125    0.2333    0.0000 C   0  0  0  0  0  0  0  0  0  0  0  0
    5.8792    0.5750    0.0000 C   0  0  0  0  0  0  0  0  0  0  0  0
  2  1  1  0  0  0  0
  3  1  2  0  0  0  0
  4  1  1  0  0  0  0
  5  3  1  0  0  0  0
  6  2  2  0  0  0  0
  6  5  1  0  0  0  0
  7  3  1  0  0  0  0
  8  6  1  0  0  0  0
  9 16  1  0  0  0  0
 10  8  1  0  0  0  0
 11  4  2  0  0  0  0
 12  4  2  0  0  0  0
 13  4  1  0  0  0  0
 14  7  1  0  0  0  0
 15  7  1  0  0  0  0
 16 22  1  0  0  0  0
 16 21  1  0  0  0  0
 17  8  2  0  0  0  0
 18 10  1  0  0  0  0
 19  9  2  0  0  0  0
 20 17  1  0  0  0  0
 20 18  2  0  0  0  0
 21 14  1  0  0  0  0
 22 15  1  0  0  0  0
 23  9  1  0  0  0  0
 24 13  1  0  0  0  0
 25 13  2  0  0  0  0
 26 25  1  0  0  0  0
 27 24  2  0  0  0  0
 28 26  2  0  0  0  0
 28 27  1  0  0  0  0
M  END
>  <ID>
7917847

>  <Supplier>
ChemBridge

>  <clogP>
2.990000000000000e+000

>  <RB>
5

>  <tPSA>
1.065000000000000e+002

>  <Hacc>
5

>  <Hdon>
1

>  <LogSw>
-4.797000000000000e+000

>  <Group>
3

>  <Core>
260

$$$$
7921724
 OpenBabel03312015312D

 35 39  0  0  0  0  0  0  0  0999 V2000
    4.5042    2.4458    0.0000 C   0  0  0  0  0  0  0  0  0  0  0  0
    3.3500    2.8208    0.0000 N   0  0  0  0  0  0  0  0  0  0  0  0
    3.3500    2.0708    0.0000 N   0  0  0  0  0  0  0  0  0  0  0  0
    4.0625    3.0500    0.0000 C   0  0  0  0  0  0  0  0  0  0  0  0
    4.0625    1.8375    0.0000 C   0  0  0  0  0  0  0  0  0  0  0  0
    7.8792    3.0958    0.0000 N   0  0  0  0  0  0  0  0  0  0  0  0
    5.2542    2.4458    0.0000 N   0  0  0  0  0  0  0  0  0  0  0  0
    5.6292    3.0958    0.0000 C   0  0  0  0  0  0  0  0  0  0  0  0
    6.3792    3.0958    0.0000 C   0  0  0  0  0  0  0  0  0  0  0  0
    7.5042    3.7458    0.0000 C   0  0  0  0  0  0  0  0  0  0  0  0
    7.5042    2.4458    0.0000 C   0  0  0  0  0  0  0  0  0  0  0  0
    6.7542    3.7458    0.0000 C   0  0  0  0  0  0  0  0  0  0  0  0
    6.7542    2.4458    0.0000 C   0  0  0  0  0  0  0  0  0  0  0  0
    2.7417    3.2583    0.0000 C   0  0  0  0  0  0  0  0  0  0  0  0
    5.2542    3.7458    0.0000 O   0  0  0  0  0  0  0  0  0  0  0  0
    7.8792    4.3875    0.0000 C   0  0  0  0  0  0  0  0  0  0  0  0
    7.8792    1.7958    0.0000 C   0  0  0  0  0  0  0  0  0  0  0  0
    8.6292    0.4958    0.0000 N   0  0  0  0  0  0  0  0  0  0  0  0
    2.0542    2.9583    0.0000 C   0  0  0  0  0  0  0  0  0  0  0  0
    4.2917    3.7708    0.0000 C   0  0  0  0  0  0  0  0  0  0  0  0
    0.6875    2.3458    0.0000 C   0  0  0  0  0  0  0  0  0  0  0  0
    8.6292    4.3875    0.0000 Cl  0  0  0  0  0  0  0  0  0  0  0  0
    4.2917    1.1208    0.0000 C   0  0  0  0  0  0  0  0  0  0  0  0
    0.0042    2.0375    0.0000 F   0  0  0  0  0  0  0  0  0  0  0  0
    6.3792    4.3875    0.0000 C   0  0  0  0  0  0  0  0  0  0  0  0
    1.9792    2.2083    0.0000 C   0  0  0  0  0  0  0  0  0  0  0  0
    1.4500    3.3958    0.0000 C   0  0  0  0  0  0  0  0  0  0  0  0
    1.2917    1.9083    0.0000 C   0  0  0  0  0  0  0  0  0  0  0  0
    0.7667    3.0875    0.0000 C   0  0  0  0  0  0  0  0  0  0  0  0
    6.7542    5.0292    0.0000 C   0  0  0  0  0  0  0  0  0  0  0  0
    9.0042    1.1458    0.0000 C   0  0  0  0  0  0  0  0  0  0  0  0
    7.8792    0.4958    0.0000 C   0  0  0  0  0  0  0  0  0  0  0  0
    7.5042    5.0292    0.0000 C   0  0  0  0  0  0  0  0  0  0  0  0
    8.6292    1.7958    0.0000 C   0  0  0  0  0  0  0  0  0  0  0  0
    7.5042    1.1458    0.0000 C   0  0  0  0  0  0  0  0  0  0  0  0
  2  4  1  0  0  0  0
  2  3  1  0  0  0  0
  3  5  2  0  0  0  0
  4  1  2  0  0  0  0
  5  1  1  0  0  0  0
  6 11  1  0  0  0  0
  6 10  2  0  0  0  0
  7  1  1  0  0  0  0
  8  7  1  0  0  0  0
  9  8  1  0  0  0  0
 10 12  1  0  0  0  0
 11 13  2  0  0  0  0
 12  9  2  0  0  0  0
 13  9  1  0  0  0  0
 14  2  1  0  0  0  0
 15  8  2  0  0  0  0
 16 10  1  0  0  0  0
 16 33  2  0  0  0  0
 17 11  1  0  0  0  0
 18 32  2  0  0  0  0
 19 14  1  0  0  0  0
 20  4  1  0  0  0  0
 21 29  2  0  0  0  0
 21 28  1  0  0  0  0
 22 16  1  0  0  0  0
 23  5  1  0  0  0  0
 24 21  1  0  0  0  0
 25 12  1  0  0  0  0
 26 19  1  0  0  0  0
 27 19  2  0  0  0  0
 28 26  2  0  0  0  0
 29 27  1  0  0  0  0
 30 25  2  0  0  0  0
 31 34  2  0  0  0  0
 31 18  1  0  0  0  0
 32 35  1  0  0  0  0
 33 30  1  0  0  0  0
 34 17  1  0  0  0  0
 35 17  2  0  0  0  0
M  END
>  <ID>
7921724

>  <Supplier>
ChemBridge

>  <clogP>
4.080000000000000e+000

>  <RB>
5

>  <tPSA>
7.270000000000000e+001

>  <Hacc>
4

>  <Hdon>
1

>  <LogSw>
-6.226000000000000e+000

>  <Group>
2

>  <Core>
120

$$$$
7921723
 OpenBabel03312015312D

 35 39  0  0  0  0  0  0  0  0999 V2000
    2.1750    0.5583    0.0000 S   0  0  0  0  0  0  0  0  0  0  0  0
    7.3667    2.8083    0.0000 N   0  0  0  0  0  0  0  0  0  0  0  0
    6.0667    2.0583    0.0000 C   0  0  0  0  0  0  0  0  0  0  0  0
    5.4167    1.6833    0.0000 C   0  0  0  0  0  0  0  0  0  0  0  0
    1.6417    1.0875    0.0000 N   0  0  0  0  0  0  0  0  0  0  0  0
    6.7167    3.1833    0.0000 C   0  0  0  0  0  0  0  0  0  0  0  0
    7.3667    2.0583    0.0000 C   0  0  0  0  0  0  0  0  0  0  0  0
    6.0667    2.8083    0.0000 C   0  0  0  0  0  0  0  0  0  0  0  0
    6.7167    1.6833    0.0000 C   0  0  0  0  0  0  0  0  0  0  0  0
    2.8167    0.9333    0.0000 C   0  0  0  0  0  0  0  0  0  0  0  0
    4.7667    2.0583    0.0000 N   0  0  0  0  0  0  0  0  0  0  0  0
    1.6000    0.0750    0.0000 O   0  0  0  0  0  0  0  0  0  0  0  0
    2.6042   -0.0542    0.0000 O   0  0  0  0  0  0  0  0  0  0  0  0
    5.4167    0.9333    0.0000 O   0  0  0  0  0  0  0  0  0  0  0  0
    6.7167    3.9333    0.0000 C   0  0  0  0  0  0  0  0  0  0  0  0
    8.0167    1.6833    0.0000 C   0  0  0  0  0  0  0  0  0  0  0  0
    9.3167    0.9333    0.0000 N   0  0  0  0  0  0  0  0  0  0  0  0
    0.5792    2.1500    0.0000 O   0  0  0  0  0  0  0  0  0  0  0  0
    3.4667    0.5583    0.0000 C   0  0  0  0  0  0  0  0  0  0  0  0
    2.8167    1.6833    0.0000 C   0  0  0  0  0  0  0  0  0  0  0  0
    4.1167    1.6833    0.0000 C   0  0  0  0  0  0  0  0  0  0  0  0
    0.9167    0.8958    0.0000 C   0  0  0  0  0  0  0  0  0  0  0  0
    1.8375    1.8125    0.0000 C   0  0  0  0  0  0  0  0  0  0  0  0
    7.3667    4.3042    0.0000 Cl  0  0  0  0  0  0  0  0  0  0  0  0
    3.4667    2.0583    0.0000 C   0  0  0  0  0  0  0  0  0  0  0  0
    4.1167    0.9333    0.0000 C   0  0  0  0  0  0  0  0  0  0  0  0
    5.4167    3.1833    0.0000 C   0  0  0  0  0  0  0  0  0  0  0  0
    0.3875    1.4250    0.0000 C   0  0  0  0  0  0  0  0  0  0  0  0
    1.3042    2.3458    0.0000 C   0  0  0  0  0  0  0  0  0  0  0  0
    5.4167    3.9333    0.0000 C   0  0  0  0  0  0  0  0  0  0  0  0
    9.3167    1.6833    0.0000 C   0  0  0  0  0  0  0  0  0  0  0  0
    8.6667    0.5583    0.0000 C   0  0  0  0  0  0  0  0  0  0  0  0
    6.0667    4.3042    0.0000 C   0  0  0  0  0  0  0  0  0  0  0  0
    8.6667    2.0583    0.0000 C   0  0  0  0  0  0  0  0  0  0  0  0
    8.0167    0.9333    0.0000 C   0  0  0  0  0  0  0  0  0  0  0  0
  2  7  1  0  0  0  0
  2  6  2  0  0  0  0
  3  4  1  0  0  0  0
  4 11  1  0  0  0  0
  5  1  1  0  0  0  0
  6  8  1  0  0  0  0
  7  9  2  0  0  0  0
  8  3  2  0  0  0  0
  9  3  1  0  0  0  0
 10  1  1  0  0  0  0
 11 21  1  0  0  0  0
 12  1  2  0  0  0  0
 13  1  2  0  0  0  0
 14  4  2  0  0  0  0
 15  6  1  0  0  0  0
 15 33  2  0  0  0  0
 16  7  1  0  0  0  0
 17 32  2  0  0  0  0
 18 29  1  0  0  0  0
 18 28  1  0  0  0  0
 19 10  2  0  0  0  0
 20 10  1  0  0  0  0
 21 25  1  0  0  0  0
 21 26  2  0  0  0  0
 22  5  1  0  0  0  0
 23  5  1  0  0  0  0
 24 15  1  0  0  0  0
 25 20  2  0  0  0  0
 26 19  1  0  0  0  0
 27  8  1  0  0  0  0
 28 22  1  0  0  0  0
 29 23  1  0  0  0  0
 30 27  2  0  0  0  0
 31 34  2  0  0  0  0
 31 17  1  0  0  0  0
 32 35  1  0  0  0  0
 33 30  1  0  0  0  0
 34 16  1  0  0  0  0
 35 16  2  0  0  0  0
M  END
>  <ID>
7921723

>  <Supplier>
ChemBridge

>  <clogP>
3.990000000000000e+000

>  <RB>
4

>  <tPSA>
1.014900000000000e+002

>  <Hacc>
6

>  <Hdon>
1

>  <LogSw>
-6.316999999999998e+000

>  <Group>
2

>  <Core>
120

$$$$
6911346
 OpenBabel03312015312D

 28 30  0  0  0  0  0  0  0  0999 V2000
   -9.9000    3.6833    0.0000 C   0  0  0  0  0  0  0  0  0  0  0  0
   -7.0292    3.6833    0.0000 C   0  0  0  0  0  0  0  0  0  0  0  0
   11.6792   -3.7375    0.0000 N   0  0  0  0  0  0  0  0  0  0  0  0
   10.2792   -1.2667    0.0000 C   0  0  0  0  0  0  0  0  0  0  0  0
   -5.5833    1.2000    0.0000 N   0  0  0  0  0  0  0  0  0  0  0  0
  -11.3542    1.2000    0.0000 C   0  0  0  0  0  0  0  0  0  0  0  0
  -11.3542    6.1500    0.0000 C   0  0  0  0  0  0  0  0  0  0  0  0
   -5.5833    6.1500    0.0000 O   0  0  0  0  0  0  0  0  0  0  0  0
    7.3542   -1.2667    0.0000 C   0  0  0  0  0  0  0  0  0  0  0  0
   11.6792    1.2000    0.0000 O   0  0  0  0  0  0  0  0  0  0  0  0
   14.6000   -8.6875    0.0000 O   0  0  0  0  0  0  0  0  0  0  0  0
  -14.2167    1.2000    0.0000 C   0  0  0  0  0  0  0  0  0  0  0  0
   -2.7333    1.2000    0.0000 C   0  0  0  0  0  0  0  0  0  0  0  0
    5.9542    1.2000    0.0000 O   0  0  0  0  0  0  0  0  0  0  0  0
  -14.2167    6.1500    0.0000 C   0  0  0  0  0  0  0  0  0  0  0  0
    3.0375    1.2000    0.0000 C   0  0  0  0  0  0  0  0  0  0  0  0
  -15.6792    3.6833    0.0000 C   0  0  0  0  0  0  0  0  0  0  0  0
  -15.7375    8.7292    0.0000 Cl  0  0  0  0  0  0  0  0  0  0  0  0
   -9.8375   -1.2667    0.0000 O   0  0  0  0  0  0  0  0  0  0  0  0
   -1.2708    3.6833    0.0000 C   0  0  0  0  0  0  0  0  0  0  0  0
   -1.2708   -1.2667    0.0000 C   0  0  0  0  0  0  0  0  0  0  0  0
    1.6500   -1.2667    0.0000 C   0  0  0  0  0  0  0  0  0  0  0  0
    1.6500    3.6833    0.0000 C   0  0  0  0  0  0  0  0  0  0  0  0
   10.2792   -6.2167    0.0000 C   0  0  0  0  0  0  0  0  0  0  0  0
   14.6000   -3.7375    0.0000 C   0  0  0  0  0  0  0  0  0  0  0  0
   11.6792   -8.6875    0.0000 C   0  0  0  0  0  0  0  0  0  0  0  0
   16.0000   -6.2167    0.0000 C   0  0  0  0  0  0  0  0  0  0  0  0
   -6.9167   -1.2667    0.0000 C   0  0  0  0  0  0  0  0  0  0  0  0
  2  1  1  0  0  0  0
  3  4  1  0  0  0  0
  4  9  1  0  0  0  0
  5  2  1  0  0  0  0
  6  1  2  0  0  0  0
  7  1  1  0  0  0  0
  8  2  2  0  0  0  0
  9 14  1  0  0  0  0
 10  4  2  0  0  0  0
 11 27  1  0  0  0  0
 11 26  1  0  0  0  0
 12  6  1  0  0  0  0
 13  5  1  0  0  0  0
 14 16  1  0  0  0  0
 15  7  2  0  0  0  0
 16 22  1  0  0  0  0
 17 15  1  0  0  0  0
 17 12  2  0  0  0  0
 18 15  1  0  0  0  0
 19  6  1  0  0  0  0
 20 13  2  0  0  0  0
 21 13  1  0  0  0  0
 22 21  2  0  0  0  0
 23 20  1  0  0  0  0
 23 16  2  0  0  0  0
 24  3  1  0  0  0  0
 25  3  1  0  0  0  0
 26 24  1  0  0  0  0
 27 25  1  0  0  0  0
 28 19  1  0  0  0  0
M  END
>  <ID>
6911346

>  <Supplier>
ChemBridge

>  <clogP>
2.880000000000000e+000

>  <RB>
5

>  <tPSA>
7.709999999999999e+001

>  <Hacc>
5

>  <Hdon>
1

>  <LogSw>
-4.611000000000000e+000

>  <Group>
1

>  <Core>
315

$$$$
6541502
 OpenBabel03312015312D

 22 24  0  0  0  0  0  0  0  0999 V2000
    5.2875    0.4458    0.0000 S   0  0  0  0  0  0  0  0  0  0  0  0
    4.6375    0.8208    0.0000 N   0  0  0  0  0  0  0  0  0  0  0  0
    3.3375    1.5708    0.0000 N   0  0  0  0  0  0  0  0  0  0  0  0
    5.8167    0.9708    0.0000 C   0  0  0  0  0  0  0  0  0  0  0  0
    4.8542   -0.1750    0.0000 O   0  0  0  0  0  0  0  0  0  0  0  0
    5.8625   -0.0417    0.0000 O   0  0  0  0  0  0  0  0  0  0  0  0
    3.9875    0.4458    0.0000 C   0  0  0  0  0  0  0  0  0  0  0  0
    4.6375    1.5708    0.0000 C   0  0  0  0  0  0  0  0  0  0  0  0
    3.9875    1.9458    0.0000 C   0  0  0  0  0  0  0  0  0  0  0  0
    3.3375    0.8208    0.0000 C   0  0  0  0  0  0  0  0  0  0  0  0
    2.6875    1.9458    0.0000 C   0  0  0  0  0  0  0  0  0  0  0  0
    6.5417    0.7750    0.0000 C   0  0  0  0  0  0  0  0  0  0  0  0
    5.6167    1.6958    0.0000 C   0  0  0  0  0  0  0  0  0  0  0  0
    6.8750    2.0333    0.0000 C   0  0  0  0  0  0  0  0  0  0  0  0
    6.1542    2.2250    0.0000 C   0  0  0  0  0  0  0  0  0  0  0  0
    7.0667    1.3083    0.0000 C   0  0  0  0  0  0  0  0  0  0  0  0
    7.4042    2.5625    0.0000 F   0  0  0  0  0  0  0  0  0  0  0  0
    2.6875    2.6958    0.0000 C   0  0  0  0  0  0  0  0  0  0  0  0
    2.0375    1.5708    0.0000 C   0  0  0  0  0  0  0  0  0  0  0  0
    1.3875    1.9458    0.0000 C   0  0  0  0  0  0  0  0  0  0  0  0
    2.0375    3.0708    0.0000 C   0  0  0  0  0  0  0  0  0  0  0  0
    1.3875    2.6958    0.0000 C   0  0  0  0  0  0  0  0  0  0  0  0
  2  1  1  0  0  0  0
  3  9  1  0  0  0  0
  4  1  1  0  0  0  0
  5  1  2  0  0  0  0
  6  1  2  0  0  0  0
  7  2  1  0  0  0  0
  8  2  1  0  0  0  0
  9  8  1  0  0  0  0
 10  7  1  0  0  0  0
 10  3  1  0  0  0  0
 11  3  1  0  0  0  0
 12  4  1  0  0  0  0
 13  4  2  0  0  0  0
 14 15  2  0  0  0  0
 14 16  1  0  0  0  0
 15 13  1  0  0  0  0
 16 12  2  0  0  0  0
 17 14  1  0  0  0  0
 18 11  1  0  0  0  0
 19 11  1  0  0  0  0
 20 19  1  0  0  0  0
 21 18  1  0  0  0  0
 21 22  1  0  0  0  0
 22 20  1  0  0  0  0
M  END
>  <ID>
6541502

>  <Supplier>
ChemBridge

>  <clogP>
5.100000000000000e-001

>  <RB>
2

>  <tPSA>
1.152200000000000e+002

>  <Hacc>
8

>  <Hdon>
2

>  <LogSw>
-1.008000000000000e+000

>  <Group>
3

>  <Core>
167

$$$$
7917846
 OpenBabel03312015312D

 28 31  0  0  0  0  0  0  0  0999 V2000
    5.6000    1.9833    0.0000 C   0  0  0  0  0  0  0  0  0  0  0  0
    6.0750    2.5708    0.0000 N   0  0  0  0  0  0  0  0  0  0  0  0
    5.7917    1.2625    0.0000 S   0  0  0  0  0  0  0  0  0  0  0  0
    4.9000    2.2583    0.0000 C   0  0  0  0  0  0  0  0  0  0  0  0
    5.6625    3.1958    0.0000 C   0  0  0  0  0  0  0  0  0  0  0  0
    4.9417    3.0083    0.0000 O   0  0  0  0  0  0  0  0  0  0  0  0
    5.9292    3.8958    0.0000 C   0  0  0  0  0  0  0  0  0  0  0  0
    0.5042    1.3958    0.0000 N   0  0  0  0  0  0  0  0  0  0  0  0
    1.6792    1.7083    0.0000 N   0  0  0  0  0  0  0  0  0  0  0  0
    6.6542    4.0875    0.0000 S   0  0  0  0  0  0  0  0  0  0  0  0
    5.0542    1.1333    0.0000 O   0  0  0  0  0  0  0  0  0  0  0  0
    5.8625    0.5125    0.0000 O   0  0  0  0  0  0  0  0  0  0  0  0
    0.9750    1.9833    0.0000 C   0  0  0  0  0  0  0  0  0  0  0  0
    6.5417    1.2625    0.0000 C   0  0  0  0  0  0  0  0  0  0  0  0
    0.9125    0.7708    0.0000 C   0  0  0  0  0  0  0  0  0  0  0  0
    4.2667    1.8458    0.0000 N   0  0  0  0  0  0  0  0  0  0  0  0
    1.6375    0.9625    0.0000 C   0  0  0  0  0  0  0  0  0  0  0  0
    5.5250    4.5167    0.0000 C   0  0  0  0  0  0  0  0  0  0  0  0
    6.6917    4.8375    0.0000 C   0  0  0  0  0  0  0  0  0  0  0  0
    5.9917    5.1042    0.0000 C   0  0  0  0  0  0  0  0  0  0  0  0
    2.3042    2.1208    0.0000 C   0  0  0  0  0  0  0  0  0  0  0  0
    2.9750    1.7833    0.0000 C   0  0  0  0  0  0  0  0  0  0  0  0
    3.6042    2.1875    0.0000 C   0  0  0  0  0  0  0  0  0  0  0  0
    6.9167    0.6125    0.0000 C   0  0  0  0  0  0  0  0  0  0  0  0
    6.9167    1.9125    0.0000 C   0  0  0  0  0  0  0  0  0  0  0  0
    7.6667    1.9125    0.0000 C   0  0  0  0  0  0  0  0  0  0  0  0
    7.6667    0.6125    0.0000 C   0  0  0  0  0  0  0  0  0  0  0  0
    8.0417    1.2625    0.0000 C   0  0  0  0  0  0  0  0  0  0  0  0
  2  1  1  0  0  0  0
  3  1  1  0  0  0  0
  4  1  2  0  0  0  0
  5  2  2  0  0  0  0
  5  6  1  0  0  0  0
  6  4  1  0  0  0  0
  7  5  1  0  0  0  0
  8 13  2  0  0  0  0
  9 21  1  0  0  0  0
 10  7  1  0  0  0  0
 11  3  2  0  0  0  0
 12  3  2  0  0  0  0
 13  9  1  0  0  0  0
 14  3  1  0  0  0  0
 15 17  2  0  0  0  0
 15  8  1  0  0  0  0
 16  4  1  0  0  0  0
 17  9  1  0  0  0  0
 18  7  2  0  0  0  0
 19 10  1  0  0  0  0
 20 18  1  0  0  0  0
 20 19  2  0  0  0  0
 21 22  1  0  0  0  0
 22 23  1  0  0  0  0
 23 16  1  0  0  0  0
 24 14  1  0  0  0  0
 25 14  2  0  0  0  0
 26 25  1  0  0  0  0
 27 24  2  0  0  0  0
 28 26  2  0  0  0  0
 28 27  1  0  0  0  0
M  END
>  <ID>
7917846

>  <Supplier>
ChemBridge

>  <clogP>
4.250000000000000e+000

>  <RB>
8

>  <tPSA>
9.002000000000002e+001

>  <Hacc>
5

>  <Hdon>
1

>  <LogSw>
-5.851000000000000e+000

>  <Group>
3

>  <Core>
260

$$$$
5230736
 OpenBabel03312015312D

 26 28  0  0  0  0  0  0  0  0999 V2000
    1.2667   -0.3500    0.0000 C   0  0  0  0  0  0  0  0  0  0  0  0
   -1.2958   -0.3500    0.0000 C   0  0  0  0  0  0  0  0  0  0  0  0
   -1.9333   -0.7042    0.0000 N   0  0  0  0  0  0  0  0  0  0  0  0
    1.9042   -0.7042    0.0000 N   0  0  0  0  0  0  0  0  0  0  0  0
    0.6167   -0.7042    0.0000 C   0  0  0  0  0  0  0  0  0  0  0  0
   -0.6625   -0.7042    0.0000 C   0  0  0  0  0  0  0  0  0  0  0  0
   -0.0208   -0.3500    0.0000 C   0  0  0  0  0  0  0  0  0  0  0  0
    1.2875    0.3708    0.0000 O   0  0  0  0  0  0  0  0  0  0  0  0
   -1.2958    0.3708    0.0000 O   0  0  0  0  0  0  0  0  0  0  0  0
   -2.5833   -0.3292    0.0000 C   0  0  0  0  0  0  0  0  0  0  0  0
    2.5542   -0.3500    0.0000 C   0  0  0  0  0  0  0  0  0  0  0  0
    3.8500    0.3958    0.0000 C   0  0  0  0  0  0  0  0  0  0  0  0
   -3.8708    0.4125    0.0000 C   0  0  0  0  0  0  0  0  0  0  0  0
   -4.5000    0.7708    0.0000 N   0  0  0  0  0  0  0  0  0  0  0  0
    4.4792    0.7500    0.0000 N   0  0  0  0  0  0  0  0  0  0  0  0
    2.5542    0.3958    0.0000 C   0  0  0  0  0  0  0  0  0  0  0  0
   -2.5833    0.3958    0.0000 C   0  0  0  0  0  0  0  0  0  0  0  0
    3.2000   -0.7042    0.0000 C   0  0  0  0  0  0  0  0  0  0  0  0
   -3.2208   -0.6875    0.0000 C   0  0  0  0  0  0  0  0  0  0  0  0
    3.8500   -0.3500    0.0000 C   0  0  0  0  0  0  0  0  0  0  0  0
   -3.8708   -0.3292    0.0000 C   0  0  0  0  0  0  0  0  0  0  0  0
   -3.2208    0.7708    0.0000 C   0  0  0  0  0  0  0  0  0  0  0  0
    3.2000    0.7500    0.0000 C   0  0  0  0  0  0  0  0  0  0  0  0
   -0.6625   -1.4542    0.0000 C   0  0  0  0  0  0  0  0  0  0  0  0
    0.6167   -1.4542    0.0000 C   0  0  0  0  0  0  0  0  0  0  0  0
   -0.0208   -1.8167    0.0000 C   0  0  0  0  0  0  0  0  0  0  0  0
  2  6  1  0  0  0  0
  3  2  1  0  0  0  0
  4  1  1  0  0  0  0
  5  1  1  0  0  0  0
  6  7  2  0  0  0  0
  7  5  1  0  0  0  0
  8  1  2  0  0  0  0
  9  2  2  0  0  0  0
 10  3  1  0  0  0  0
 11  4  1  0  0  0  0
 12 20  1  0  0  0  0
 13 21  1  0  0  0  0
 14 13  1  0  0  0  0
 15 12  1  0  0  0  0
 16 11  2  0  0  0  0
 17 10  2  0  0  0  0
 18 11  1  0  0  0  0
 19 10  1  0  0  0  0
 20 18  2  0  0  0  0
 21 19  2  0  0  0  0
 22 17  1  0  0  0  0
 22 13  2  0  0  0  0
 23 16  1  0  0  0  0
 23 12  2  0  0  0  0
 24 26  2  0  0  0  0
 24  6  1  0  0  0  0
 25  5  2  0  0  0  0
 26 25  1  0  0  0  0
M  END
>  <ID>
5230736

>  <Supplier>
ChemBridge

>  <clogP>
1.160000000000000e+000

>  <RB>
4

>  <tPSA>
1.102400000000000e+002

>  <Hacc>
2

>  <Hdon>
4

>  <LogSw>
-2.716000000000000e+000

>  <Group>
3

>  <Core>
511

$$$$
6421175
 OpenBabel03312015312D

 16 17  0  0  0  0  0  0  0  0999 V2000
    3.5292   -4.1917    0.0000 N   0  3  0  0  0  0  0  0  0  0  0  0
    4.2500   -3.7792    0.0000 C   0  0  0  0  0  0  0  0  0  0  0  0
    6.3875   -4.1917    0.0000 C   0  0  0  0  0  0  0  0  0  0  0  0
    4.9625   -4.1917    0.0000 C   0  0  0  0  0  0  0  0  0  0  0  0
    5.6667   -3.7792    0.0000 C   0  0  0  0  0  0  0  0  0  0  0  0
    7.1000   -3.7792    0.0000 N   0  0  0  0  0  0  0  0  0  0  0  0
    7.8042   -4.1875    0.0000 C   0  0  0  0  0  0  0  0  0  0  0  0
    4.2417   -2.9542    0.0000 C   0  0  0  0  0  0  0  0  0  0  0  0
    2.8167   -3.7917    0.0000 O   0  5  0  0  0  0  0  0  0  0  0  0
    3.5375   -5.0250    0.0000 O   0  0  0  0  0  0  0  0  0  0  0  0
    8.6292   -4.1792    0.0000 C   0  0  0  0  0  0  0  0  0  0  0  0
    8.2167   -4.8917    0.0000 C   0  0  0  0  0  0  0  0  0  0  0  0
    6.3875   -5.0167    0.0000 O   0  0  0  0  0  0  0  0  0  0  0  0
    5.6750   -2.9542    0.0000 C   0  0  0  0  0  0  0  0  0  0  0  0
    4.9625   -2.5417    0.0000 C   0  0  0  0  0  0  0  0  0  0  0  0
    3.5292   -2.5417    0.0000 Cl  0  0  0  0  0  0  0  0  0  0  0  0
  2  1  1  0  0  0  0
  3  5  1  0  0  0  0
  4  2  2  0  0  0  0
  5  4  1  0  0  0  0
  5 14  2  0  0  0  0
  6  3  1  0  0  0  0
  7  6  1  0  0  0  0
  8  2  1  0  0  0  0
  9  1  1  0  0  0  0
 10  1  2  0  0  0  0
 11  7  1  0  0  0  0
 11 12  1  0  0  0  0
 12  7  1  0  0  0  0
 13  3  2  0  0  0  0
 14 15  1  0  0  0  0
 15  8  2  0  0  0  0
 16  8  1  0  0  0  0
M  CHG  2   1   1   9  -1
M  END
>  <ID>
6421175

>  <Supplier>
ChemBridge

>  <clogP>
1.960000000000000e+000

>  <RB>
2

>  <tPSA>
7.224000000000000e+001

>  <Hacc>
3

>  <Hdon>
1

>  <LogSw>
-3.020000000000000e+000

>  <Group>
2

$$$$
5629903
 OpenBabel03312015312D

 30 33  0  0  0  0  0  0  0  0999 V2000
    0.0292    0.4500    0.0000 C   0  0  0  0  0  0  0  0  0  0  0  0
    1.0167    1.6958    0.0000 C   0  0  0  0  0  0  0  0  0  0  0  0
   -0.6458   -0.8792    0.0000 N   0  0  0  0  0  0  0  0  0  0  0  0
    0.1542    1.3625    0.0000 C   0  0  3  0  0  0  0  0  0  0  0  0
   -0.7708    0.0500    0.0000 C   0  0  0  0  0  0  0  0  0  0  0  0
    0.2542   -1.0500    0.0000 N   0  0  0  0  0  0  0  0  0  0  0  0
    0.7000   -0.1792    0.0000 C   0  0  0  0  0  0  0  0  0  0  0  0
    1.1542    2.6000    0.0000 C   0  0  0  0  0  0  0  0  0  0  0  0
   -0.4000    2.8458    0.0000 C   0  0  0  0  0  0  0  0  0  0  0  0
    0.4500    3.1833    0.0000 N   0  0  0  0  0  0  0  0  0  0  0  0
   -0.5500    1.9208    0.0000 N   0  0  0  0  0  0  0  0  0  0  0  0
    1.7292    1.1125    0.0000 C   0  0  0  0  0  0  0  0  0  0  0  0
   -1.1125    3.4208    0.0000 S   0  0  0  0  0  0  0  0  0  0  0  0
    0.6500   -1.8542    0.0000 C   0  0  0  0  0  0  0  0  0  0  0  0
   -1.5708    0.5208    0.0000 C   0  0  0  0  0  0  0  0  0  0  0  0
    2.6000    1.4333    0.0000 O   0  0  0  0  0  0  0  0  0  0  0  0
    1.5792    0.2125    0.0000 O   0  0  0  0  0  0  0  0  0  0  0  0
    2.0167    2.9458    0.0000 C   0  0  0  0  0  0  0  0  0  0  0  0
    0.1042   -2.6167    0.0000 C   0  0  0  0  0  0  0  0  0  0  0  0
    1.5792   -1.9500    0.0000 C   0  0  0  0  0  0  0  0  0  0  0  0
   -1.5708    1.4625    0.0000 C   0  0  0  0  0  0  0  0  0  0  0  0
   -2.3833    0.0500    0.0000 C   0  0  0  0  0  0  0  0  0  0  0  0
    2.3000   -0.3542    0.0000 C   0  0  0  0  0  0  0  0  0  0  0  0
    3.1500   -0.0500    0.0000 C   0  0  0  0  0  0  0  0  0  0  0  0
   -2.3833    1.9125    0.0000 C   0  0  0  0  0  0  0  0  0  0  0  0
    0.5042   -3.4667    0.0000 C   0  0  0  0  0  0  0  0  0  0  0  0
    1.9792   -2.8000    0.0000 C   0  0  0  0  0  0  0  0  0  0  0  0
   -3.1833    0.5208    0.0000 C   0  0  0  0  0  0  0  0  0  0  0  0
    1.4292   -3.5542    0.0000 C   0  0  0  0  0  0  0  0  0  0  0  0
   -3.1833    1.4625    0.0000 C   0  0  0  0  0  0  0  0  0  0  0  0
  2  4  1  0  0  0  0
  3  5  2  0  0  0  0
  3  6  1  0  0  0  0
  4  1  1  0  0  0  0
  5  1  1  0  0  0  0
  6  7  1  0  0  0  0
  7  1  2  0  0  0  0
  8  2  2  0  0  0  0
  8 10  1  0  0  0  0
  9 11  1  0  0  0  0
 10  9  1  0  0  0  0
 11  4  1  0  0  0  0
 12  2  1  0  0  0  0
 13  9  2  0  0  0  0
 14  6  1  0  0  0  0
 15  5  1  0  0  0  0
 16 12  2  0  0  0  0
 17 12  1  0  0  0  0
 18  8  1  0  0  0  0
 19 14  2  0  0  0  0
 20 14  1  0  0  0  0
 21 15  2  0  0  0  0
 22 15  1  0  0  0  0
 23 17  1  0  0  0  0
 24 23  1  0  0  0  0
 25 21  1  0  0  0  0
 25 30  2  0  0  0  0
 26 19  1  0  0  0  0
 26 29  2  0  0  0  0
 27 20  2  0  0  0  0
 28 22  2  0  0  0  0
 29 27  1  0  0  0  0
 30 28  1  0  0  0  0
M  END
>  <ID>
5629903

>  <Supplier>
ChemBridge

>  <clogP>
5.790000000000000e+000

>  <RB>
4

>  <tPSA>
6.818000000000001e+001

>  <Hacc>
4

>  <Hdon>
2

>  <LogSw>
-6.186999999999999e+000

>  <Group>
3

>  <Core>
072

$$$$
6421170
 OpenBabel03312015312D

 20 21  0  0  0  0  0  0  0  0999 V2000
   -3.2333   -2.2792    0.0000 N   0  3  0  0  0  0  0  0  0  0  0  0
   -0.1125    0.3958    0.0000 C   0  0  0  0  0  0  0  0  0  0  0  0
   -2.4333   -1.8542    0.0000 C   0  0  0  0  0  0  0  0  0  0  0  0
   -3.9958   -1.8292    0.0000 O   0  5  0  0  0  0  0  0  0  0  0  0
   -0.1125   -0.5042    0.0000 N   0  0  0  0  0  0  0  0  0  0  0  0
   -3.2708   -3.1792    0.0000 O   0  0  0  0  0  0  0  0  0  0  0  0
    0.6667    0.8458    0.0000 S   0  0  0  0  0  0  0  0  0  0  0  0
   -0.8708    0.8458    0.0000 N   0  0  0  0  0  0  0  0  0  0  0  0
   -3.9583    1.7125    0.0000 N   0  0  0  0  0  0  0  0  0  0  0  0
   -2.4333   -0.9542    0.0000 C   0  0  0  0  0  0  0  0  0  0  0  0
   -1.6708   -2.3042    0.0000 C   0  0  0  0  0  0  0  0  0  0  0  0
   -0.8958   -0.9542    0.0000 C   0  0  0  0  0  0  0  0  0  0  0  0
   -1.6500    0.3958    0.0000 C   0  0  0  0  0  0  0  0  0  0  0  0
   -0.8958   -1.8542    0.0000 C   0  0  0  0  0  0  0  0  0  0  0  0
   -1.6500   -0.5375    0.0000 C   0  0  0  0  0  0  0  0  0  0  0  0
   -2.4125    0.8125    0.0000 C   0  0  0  0  0  0  0  0  0  0  0  0
   -3.1958    2.1625    0.0000 C   0  0  0  0  0  0  0  0  0  0  0  0
   -3.9583    0.8458    0.0000 C   0  0  0  0  0  0  0  0  0  0  0  0
   -2.4125    1.7125    0.0000 C   0  0  0  0  0  0  0  0  0  0  0  0
   -3.1708    0.3958    0.0000 C   0  0  0  0  0  0  0  0  0  0  0  0
  2  5  1  0  0  0  0
  3  1  1  0  0  0  0
  4  1  1  0  0  0  0
  5 12  1  0  0  0  0
  6  1  2  0  0  0  0
  7  2  2  0  0  0  0
  8  2  1  0  0  0  0
  9 18  2  0  0  0  0
  9 17  1  0  0  0  0
 10  3  1  0  0  0  0
 11  3  2  0  0  0  0
 12 14  2  0  0  0  0
 12 15  1  0  0  0  0
 13  8  1  0  0  0  0
 14 11  1  0  0  0  0
 15 10  2  0  0  0  0
 16 13  1  0  0  0  0
 17 19  2  0  0  0  0
 18 20  1  0  0  0  0
 19 16  1  0  0  0  0
 20 16  2  0  0  0  0
M  CHG  2   1   1   4  -1
M  END
>  <ID>
6421170

>  <Supplier>
ChemBridge

>  <clogP>
1.540000000000000e+000

>  <RB>
3

>  <tPSA>
8.009000000000000e+001

>  <Hacc>
3

>  <Hdon>
2

>  <LogSw>
-7.000000000000000e-001

>  <Group>
3

$$$$
5781468
 OpenBabel03312015312D

 29 32  0  0  0  0  0  0  0  0999 V2000
    0.1750   -3.1167    0.0000 C   0  0  0  0  0  0  0  0  0  0  0  0
    0.0125   -3.8792    0.0000 N   0  0  0  0  0  0  0  0  0  0  0  0
   -0.5083   -2.7250    0.0000 C   0  0  0  0  0  0  0  0  0  0  0  0
   -3.0958   -3.7167    0.0000 N   0  3  0  0  0  0  0  0  0  0  0  0
   -1.0833   -3.2500    0.0000 C   0  0  0  0  0  0  0  0  0  0  0  0
   -0.7708   -3.9667    0.0000 C   0  0  0  0  0  0  0  0  0  0  0  0
   -1.8583   -3.1667    0.0000 C   0  0  0  0  0  0  0  0  0  0  0  0
   -2.3208   -3.7917    0.0000 C   0  0  0  0  0  0  0  0  0  0  0  0
    0.8500   -2.7167    0.0000 C   0  0  3  0  0  0  0  0  0  0  0  0
    1.5292   -3.1125    0.0000 N   0  0  0  0  0  0  0  0  0  0  0  0
   -3.4125   -3.0042    0.0000 O   0  5  0  0  0  0  0  0  0  0  0  0
   -3.5583   -4.3500    0.0000 O   0  0  0  0  0  0  0  0  0  0  0  0
   -1.2250   -4.5917    0.0000 C   0  0  0  0  0  0  0  0  0  0  0  0
   -2.0000   -4.5042    0.0000 C   0  0  0  0  0  0  0  0  0  0  0  0
   -0.5083   -1.9375    0.0000 C   0  0  0  0  0  0  0  0  0  0  0  0
    4.2792   -3.1000    0.0000 C   0  0  0  0  0  0  0  0  0  0  0  0
    5.6292   -3.9167    0.0000 C   0  0  0  0  0  0  0  0  0  0  0  0
    2.2417   -2.7000    0.0000 C   0  0  3  0  0  0  0  0  0  0  0  0
    3.6042   -2.7042    0.0000 C   0  0  0  0  0  0  0  0  0  0  0  0
    4.9667   -2.7042    0.0000 C   0  0  0  0  0  0  0  0  0  0  0  0
    4.2750   -3.9042    0.0000 C   0  0  0  0  0  0  0  0  0  0  0  0
    4.9542   -4.3042    0.0000 C   0  0  0  0  0  0  0  0  0  0  0  0
    5.6417   -3.1167    0.0000 C   0  0  0  0  0  0  0  0  0  0  0  0
    2.9250   -3.1000    0.0000 C   0  0  0  0  0  0  0  0  0  0  0  0
    0.8500   -1.9375    0.0000 C   0  0  0  0  0  0  0  0  0  0  0  0
    6.3042   -4.3292    0.0000 O   0  0  0  0  0  0  0  0  0  0  0  0
    0.1750   -1.5417    0.0000 C   0  0  0  0  0  0  0  0  0  0  0  0
    6.2792   -5.1000    0.0000 C   0  0  0  0  0  0  0  0  0  0  0  0
    2.2417   -1.9167    0.0000 C   0  0  0  0  0  0  0  0  0  0  0  0
  2  1  1  0  0  0  0
  3  1  2  0  0  0  0
  4  8  1  0  0  0  0
  5  3  1  0  0  0  0
  5  6  2  0  0  0  0
  6  2  1  0  0  0  0
  7  5  1  0  0  0  0
  8  7  2  0  0  0  0
  9  1  1  0  0  0  0
 10  9  1  0  0  0  0
 11  4  1  0  0  0  0
 12  4  2  0  0  0  0
 13  6  1  0  0  0  0
 14 13  2  0  0  0  0
 14  8  1  0  0  0  0
 15  3  1  0  0  0  0
 16 19  1  0  0  0  0
 17 22  1  0  0  0  0
 17 23  2  0  0  0  0
 18 10  1  0  0  0  0
 19 24  1  0  0  0  0
 20 16  2  0  0  0  0
 21 16  1  0  0  0  0
 22 21  2  0  0  0  0
 23 20  1  0  0  0  0
 24 18  1  0  0  0  0
 25  9  1  0  0  0  0
 26 17  1  0  0  0  0
 27 25  1  0  0  0  0
 27 15  1  0  0  0  0
 28 26  1  0  0  0  0
 29 18  1  0  0  0  0
M  CHG  2   4   1  11  -1
M  END
>  <ID>
5781468

>  <Supplier>
ChemBridge

>  <clogP>
5.280000000000000e+000

>  <RB>
5

>  <tPSA>
8.019000000000000e+001

>  <Hacc>
4

>  <Hdon>
2

>  <LogSw>
-5.960000000000000e+000

>  <Group>
3

$$$$
5781469
 OpenBabel03312015312D

 24 28  0  0  0  0  0  0  0  0999 V2000
    0.1750   -3.1167    0.0000 C   0  0  0  0  0  0  0  0  0  0  0  0
    0.0125   -3.8792    0.0000 N   0  0  0  0  0  0  0  0  0  0  0  0
   -0.5083   -2.7250    0.0000 C   0  0  0  0  0  0  0  0  0  0  0  0
   -3.0958   -3.7167    0.0000 N   0  3  0  0  0  0  0  0  0  0  0  0
   -1.0833   -3.2500    0.0000 C   0  0  0  0  0  0  0  0  0  0  0  0
   -0.7708   -3.9667    0.0000 C   0  0  0  0  0  0  0  0  0  0  0  0
    0.8500   -2.7167    0.0000 C   0  0  3  0  0  0  0  0  0  0  0  0
   -1.8583   -3.1667    0.0000 C   0  0  0  0  0  0  0  0  0  0  0  0
    1.5292   -3.1125    0.0000 N   0  0  0  0  0  0  0  0  0  0  0  0
   -2.3208   -3.7917    0.0000 C   0  0  0  0  0  0  0  0  0  0  0  0
    2.2417   -2.7000    0.0000 C   0  0  3  0  0  0  0  0  0  0  0  0
    2.9250   -3.1000    0.0000 C   0  0  3  0  0  0  0  0  0  0  0  0
   -3.4125   -3.0042    0.0000 O   0  5  0  0  0  0  0  0  0  0  0  0
   -3.5583   -4.3500    0.0000 O   0  0  0  0  0  0  0  0  0  0  0  0
    2.2417   -1.9167    0.0000 C   0  0  0  0  0  0  0  0  0  0  0  0
   -1.2250   -4.5917    0.0000 C   0  0  0  0  0  0  0  0  0  0  0  0
    3.2750   -2.3042    0.0000 C   0  0  0  0  0  0  0  0  0  0  0  0
   -2.0000   -4.5042    0.0000 C   0  0  0  0  0  0  0  0  0  0  0  0
    2.9250   -1.5167    0.0000 C   0  0  3  0  0  0  0  0  0  0  0  0
    3.6042   -2.7042    0.0000 C   0  0  0  0  0  0  0  0  0  0  0  0
   -0.5083   -1.9375    0.0000 C   0  0  0  0  0  0  0  0  0  0  0  0
    3.6042   -1.9167    0.0000 C   0  0  0  0  0  0  0  0  0  0  0  0
    0.8500   -1.9375    0.0000 C   0  0  0  0  0  0  0  0  0  0  0  0
    0.1750   -1.5417    0.0000 C   0  0  0  0  0  0  0  0  0  0  0  0
  2  1  1  0  0  0  0
  3  1  2  0  0  0  0
  4 10  1  0  0  0  0
  5  3  1  0  0  0  0
  5  6  2  0  0  0  0
  6  2  1  0  0  0  0
  7  1  1  0  0  0  0
  8  5  1  0  0  0  0
  9  7  1  0  0  0  0
 10  8  2  0  0  0  0
 11  9  1  0  0  0  0
 12 11  1  0  0  0  0
 13  4  1  0  0  0  0
 14  4  2  0  0  0  0
 15 11  1  0  0  0  0
 16  6  1  0  0  0  0
 17 12  1  0  0  0  0
 18 16  2  0  0  0  0
 18 10  1  0  0  0  0
 19 15  1  0  0  0  0
 19 17  1  0  0  0  0
 20 12  1  0  0  0  0
 20 22  1  0  0  0  0
 21  3  1  0  0  0  0
 22 19  1  0  0  0  0
 23  7  1  0  0  0  0
 24 23  1  0  0  0  0
 24 21  1  0  0  0  0
M  CHG  2   4   1  13  -1
M  END
>  <ID>
5781469

>  <Supplier>
ChemBridge

>  <clogP>
4.359999999999999e+000

>  <RB>
2

>  <tPSA>
7.095999999999998e+001

>  <Hacc>
3

>  <Hdon>
2

>  <LogSw>
-4.678000000000000e+000

>  <Group>
3

$$$$
5564102
 OpenBabel03312015312D

 19 21  0  0  0  0  0  0  0  0999 V2000
   -0.5333   -0.1792    0.0000 S   0  0  0  0  0  0  0  0  0  0  0  0
    0.2042   -0.4792    0.0000 N   0  0  0  0  0  0  0  0  0  0  0  0
    0.7292    0.1458    0.0000 C   0  0  0  0  0  0  0  0  0  0  0  0
    0.3042    0.8208    0.0000 C   0  0  0  0  0  0  0  0  0  0  0  0
   -0.4958    0.6208    0.0000 C   0  0  0  0  0  0  0  0  0  0  0  0
    1.5500    0.0833    0.0000 N   0  0  0  0  0  0  0  0  0  0  0  0
   -1.3500   -0.1375    0.0000 O   0  0  0  0  0  0  0  0  0  0  0  0
   -0.5958   -1.0000    0.0000 O   0  0  0  0  0  0  0  0  0  0  0  0
    1.9875    0.7458    0.0000 C   0  0  0  0  0  0  0  0  0  0  0  0
    2.7792    0.6833    0.0000 C   0  0  0  0  0  0  0  0  0  0  0  0
    3.2500    1.3333    0.0000 C   0  0  0  0  0  0  0  0  0  0  0  0
    0.5292    1.6000    0.0000 C   0  0  0  0  0  0  0  0  0  0  0  0
   -1.0500    1.2000    0.0000 C   0  0  0  0  0  0  0  0  0  0  0  0
    4.0500    1.2500    0.0000 O   0  0  0  0  0  0  0  0  0  0  0  0
    2.0875    2.1333    0.0000 C   0  0  0  0  0  0  0  0  0  0  0  0
    1.6500    1.4708    0.0000 C   0  0  0  0  0  0  0  0  0  0  0  0
    2.9000    2.0708    0.0000 C   0  0  0  0  0  0  0  0  0  0  0  0
   -0.0500    2.1833    0.0000 C   0  0  0  0  0  0  0  0  0  0  0  0
   -0.8333    1.9625    0.0000 C   0  0  0  0  0  0  0  0  0  0  0  0
  2  1  1  0  0  0  0
  3  2  2  0  0  0  0
  4  5  2  0  0  0  0
  4  3  1  0  0  0  0
  5  1  1  0  0  0  0
  6  3  1  0  0  0  0
  7  1  2  0  0  0  0
  8  1  2  0  0  0  0
  9  6  1  0  0  0  0
 10  9  1  0  0  0  0
 11 10  2  0  0  0  0
 11 17  1  0  0  0  0
 12  4  1  0  0  0  0
 12 18  2  0  0  0  0
 13  5  1  0  0  0  0
 14 11  1  0  0  0  0
 15 16  1  0  0  0  0
 16  9  2  0  0  0  0
 17 15  2  0  0  0  0
 18 19  1  0  0  0  0
 19 13  2  0  0  0  0
M  END
>  <ID>
5564102

>  <Supplier>
ChemBridge

>  <clogP>
2.930000000000000e+000

>  <RB>
2

>  <tPSA>
7.876000000000002e+001

>  <Hacc>
4

>  <Hdon>
2

>  <LogSw>
-3.123000000000000e+000

>  <Group>
3

>  <Core>
446

$$$$
5781467
 OpenBabel03312015312D

 24 27  0  0  0  0  0  0  0  0999 V2000
    0.1750   -3.1167    0.0000 C   0  0  0  0  0  0  0  0  0  0  0  0
    0.0125   -3.8792    0.0000 N   0  0  0  0  0  0  0  0  0  0  0  0
   -0.5083   -2.7250    0.0000 C   0  0  0  0  0  0  0  0  0  0  0  0
   -3.0958   -3.7167    0.0000 N   0  3  0  0  0  0  0  0  0  0  0  0
   -1.0833   -3.2500    0.0000 C   0  0  0  0  0  0  0  0  0  0  0  0
   -0.7708   -3.9667    0.0000 C   0  0  0  0  0  0  0  0  0  0  0  0
   -1.8583   -3.1667    0.0000 C   0  0  0  0  0  0  0  0  0  0  0  0
   -2.3208   -3.7917    0.0000 C   0  0  0  0  0  0  0  0  0  0  0  0
    0.8500   -2.7167    0.0000 C   0  0  3  0  0  0  0  0  0  0  0  0
    1.5292   -3.1125    0.0000 N   0  0  0  0  0  0  0  0  0  0  0  0
   -3.4125   -3.0042    0.0000 O   0  5  0  0  0  0  0  0  0  0  0  0
   -3.5583   -4.3500    0.0000 O   0  0  0  0  0  0  0  0  0  0  0  0
   -1.2250   -4.5917    0.0000 C   0  0  0  0  0  0  0  0  0  0  0  0
   -2.0000   -4.5042    0.0000 C   0  0  0  0  0  0  0  0  0  0  0  0
   -0.5083   -1.9375    0.0000 C   0  0  0  0  0  0  0  0  0  0  0  0
    2.2417   -2.7000    0.0000 C   0  0  0  0  0  0  0  0  0  0  0  0
    0.8500   -1.9375    0.0000 C   0  0  0  0  0  0  0  0  0  0  0  0
    0.1750   -1.5417    0.0000 C   0  0  0  0  0  0  0  0  0  0  0  0
    2.2417   -1.9167    0.0000 C   0  0  0  0  0  0  0  0  0  0  0  0
    2.8292   -3.2000    0.0000 C   0  0  0  0  0  0  0  0  0  0  0  0
    2.8792   -1.4500    0.0000 C   0  0  0  0  0  0  0  0  0  0  0  0
    3.5917   -3.0417    0.0000 C   0  0  0  0  0  0  0  0  0  0  0  0
    3.6167   -1.6167    0.0000 C   0  0  0  0  0  0  0  0  0  0  0  0
    3.9792   -2.3417    0.0000 C   0  0  0  0  0  0  0  0  0  0  0  0
  2  1  1  0  0  0  0
  3  1  2  0  0  0  0
  4  8  1  0  0  0  0
  5  3  1  0  0  0  0
  5  6  2  0  0  0  0
  6  2  1  0  0  0  0
  7  5  1  0  0  0  0
  8  7  2  0  0  0  0
  9  1  1  0  0  0  0
 10  9  1  0  0  0  0
 11  4  1  0  0  0  0
 12  4  2  0  0  0  0
 13  6  1  0  0  0  0
 14 13  2  0  0  0  0
 14  8  1  0  0  0  0
 15  3  1  0  0  0  0
 16 10  1  0  0  0  0
 17  9  1  0  0  0  0
 18 17  1  0  0  0  0
 18 15  1  0  0  0  0
 19 16  1  0  0  0  0
 20 16  1  0  0  0  0
 21 19  1  0  0  0  0
 22 20  1  0  0  0  0
 23 21  1  0  0  0  0
 24 22  1  0  0  0  0
 24 23  1  0  0  0  0
M  CHG  2   4   1  11  -1
M  END
>  <ID>
5781467

>  <Supplier>
ChemBridge

>  <clogP>
5.159999999999998e+000

>  <RB>
2

>  <tPSA>
7.095999999999998e+001

>  <Hacc>
3

>  <Hdon>
2

>  <LogSw>
-5.376000000000000e+000

>  <Group>
1

$$$$
5781464
 OpenBabel03312015312D

 30 34  0  0  0  0  0  0  0  0999 V2000
    0.1750   -3.1167    0.0000 C   0  0  0  0  0  0  0  0  0  0  0  0
    0.0125   -3.8792    0.0000 N   0  0  0  0  0  0  0  0  0  0  0  0
   -0.5083   -2.7250    0.0000 C   0  0  0  0  0  0  0  0  0  0  0  0
   -3.0958   -3.7167    0.0000 N   0  3  0  0  0  0  0  0  0  0  0  0
   -1.0833   -3.2500    0.0000 C   0  0  0  0  0  0  0  0  0  0  0  0
   -0.7708   -3.9667    0.0000 C   0  0  0  0  0  0  0  0  0  0  0  0
   -1.8583   -3.1667    0.0000 C   0  0  0  0  0  0  0  0  0  0  0  0
   -2.3208   -3.7917    0.0000 C   0  0  0  0  0  0  0  0  0  0  0  0
    0.8500   -2.7167    0.0000 C   0  0  3  0  0  0  0  0  0  0  0  0
    3.6042   -1.9167    0.0000 N   0  0  0  0  0  0  0  0  0  0  0  0
    1.5292   -3.1125    0.0000 N   0  0  0  0  0  0  0  0  0  0  0  0
   -3.4125   -3.0042    0.0000 O   0  5  0  0  0  0  0  0  0  0  0  0
   -3.5583   -4.3500    0.0000 O   0  0  0  0  0  0  0  0  0  0  0  0
   -1.2250   -4.5917    0.0000 C   0  0  0  0  0  0  0  0  0  0  0  0
   -2.0000   -4.5042    0.0000 C   0  0  0  0  0  0  0  0  0  0  0  0
    2.2417   -2.7000    0.0000 C   0  0  0  0  0  0  0  0  0  0  0  0
    4.2792   -1.5167    0.0000 C   0  0  0  0  0  0  0  0  0  0  0  0
    2.9250   -3.1000    0.0000 C   0  0  0  0  0  0  0  0  0  0  0  0
    2.2417   -1.9167    0.0000 C   0  0  0  0  0  0  0  0  0  0  0  0
    2.9250   -1.5167    0.0000 C   0  0  0  0  0  0  0  0  0  0  0  0
    3.6042   -2.7042    0.0000 C   0  0  0  0  0  0  0  0  0  0  0  0
   -0.5083   -1.9375    0.0000 C   0  0  0  0  0  0  0  0  0  0  0  0
    4.9667   -1.9167    0.0000 C   0  0  0  0  0  0  0  0  0  0  0  0
    0.8500   -1.9375    0.0000 C   0  0  0  0  0  0  0  0  0  0  0  0
    0.1750   -1.5417    0.0000 C   0  0  0  0  0  0  0  0  0  0  0  0
    4.9667   -2.7042    0.0000 C   0  0  0  0  0  0  0  0  0  0  0  0
    5.6417   -1.5292    0.0000 C   0  0  0  0  0  0  0  0  0  0  0  0
    6.3250   -1.9167    0.0000 C   0  0  0  0  0  0  0  0  0  0  0  0
    5.6417   -3.1042    0.0000 C   0  0  0  0  0  0  0  0  0  0  0  0
    6.3250   -2.7042    0.0000 C   0  0  0  0  0  0  0  0  0  0  0  0
  2  1  1  0  0  0  0
  3  1  2  0  0  0  0
  4  8  1  0  0  0  0
  5  3  1  0  0  0  0
  5  6  2  0  0  0  0
  6  2  1  0  0  0  0
  7  5  1  0  0  0  0
  8  7  2  0  0  0  0
  9  1  1  0  0  0  0
 10 20  1  0  0  0  0
 10 21  1  0  0  0  0
 11  9  1  0  0  0  0
 12  4  1  0  0  0  0
 13  4  2  0  0  0  0
 14  6  1  0  0  0  0
 15 14  2  0  0  0  0
 15  8  1  0  0  0  0
 16 11  1  0  0  0  0
 17 10  1  0  0  0  0
 18 16  1  0  0  0  0
 19 16  1  0  0  0  0
 20 19  1  0  0  0  0
 21 18  1  0  0  0  0
 22  3  1  0  0  0  0
 23 17  1  0  0  0  0
 24  9  1  0  0  0  0
 25 24  1  0  0  0  0
 25 22  1  0  0  0  0
 26 23  2  0  0  0  0
 27 23  1  0  0  0  0
 28 27  2  0  0  0  0
 29 26  1  0  0  0  0
 29 30  2  0  0  0  0
 30 28  1  0  0  0  0
M  CHG  2   4   1  12  -1
M  END
>  <ID>
5781464

>  <Supplier>
ChemBridge

>  <clogP>
4.420000000000000e+000

>  <RB>
4

>  <tPSA>
7.420000000000000e+001

>  <Hacc>
4

>  <Hdon>
2

>  <LogSw>
-5.306000000000000e+000

>  <Group>
3

$$$$
5781465
 OpenBabel03312015312D

 27 30  0  0  0  0  0  0  0  0999 V2000
    0.1750   -3.1167    0.0000 C   0  0  0  0  0  0  0  0  0  0  0  0
    0.0125   -3.8792    0.0000 N   0  0  0  0  0  0  0  0  0  0  0  0
   -0.5083   -2.7250    0.0000 C   0  0  0  0  0  0  0  0  0  0  0  0
   -3.0958   -3.7167    0.0000 N   0  3  0  0  0  0  0  0  0  0  0  0
   -1.0833   -3.2500    0.0000 C   0  0  0  0  0  0  0  0  0  0  0  0
   -0.7708   -3.9667    0.0000 C   0  0  0  0  0  0  0  0  0  0  0  0
   -1.8583   -3.1667    0.0000 C   0  0  0  0  0  0  0  0  0  0  0  0
   -2.3208   -3.7917    0.0000 C   0  0  0  0  0  0  0  0  0  0  0  0
    0.8500   -2.7167    0.0000 C   0  0  3  0  0  0  0  0  0  0  0  0
    1.5292   -3.1125    0.0000 N   0  0  0  0  0  0  0  0  0  0  0  0
   -3.4125   -3.0042    0.0000 O   0  5  0  0  0  0  0  0  0  0  0  0
   -3.5583   -4.3500    0.0000 O   0  0  0  0  0  0  0  0  0  0  0  0
    4.2792   -1.5292    0.0000 C   0  0  0  0  0  0  0  0  0  0  0  0
   -1.2250   -4.5917    0.0000 C   0  0  0  0  0  0  0  0  0  0  0  0
    3.6042   -1.9167    0.0000 C   0  0  3  0  0  0  0  0  0  0  0  0
   -2.0000   -4.5042    0.0000 C   0  0  0  0  0  0  0  0  0  0  0  0
    2.9250   -1.5167    0.0000 C   0  0  0  0  0  0  0  0  0  0  0  0
    3.6042   -2.7042    0.0000 C   0  0  0  0  0  0  0  0  0  0  0  0
    2.2417   -2.7000    0.0000 C   0  0  3  0  0  0  0  0  0  0  0  0
   -0.5083   -1.9375    0.0000 C   0  0  0  0  0  0  0  0  0  0  0  0
    2.2417   -1.9167    0.0000 C   0  0  0  0  0  0  0  0  0  0  0  0
    2.9250   -3.1000    0.0000 C   0  0  0  0  0  0  0  0  0  0  0  0
    0.8500   -1.9375    0.0000 C   0  0  0  0  0  0  0  0  0  0  0  0
    0.1750   -1.5417    0.0000 C   0  0  0  0  0  0  0  0  0  0  0  0
    4.6750   -2.2042    0.0000 C   0  0  0  0  0  0  0  0  0  0  0  0
    4.9542   -1.1500    0.0000 C   0  0  0  0  0  0  0  0  0  0  0  0
    3.8917   -0.8500    0.0000 C   0  0  0  0  0  0  0  0  0  0  0  0
  2  1  1  0  0  0  0
  3  1  2  0  0  0  0
  4  8  1  0  0  0  0
  5  3  1  0  0  0  0
  5  6  2  0  0  0  0
  6  2  1  0  0  0  0
  7  5  1  0  0  0  0
  8  7  2  0  0  0  0
  9  1  1  0  0  0  0
 10  9  1  0  0  0  0
 11  4  1  0  0  0  0
 12  4  2  0  0  0  0
 13 15  1  0  0  0  0
 14  6  1  0  0  0  0
 15 18  1  0  0  0  0
 15 17  1  0  0  0  0
 16 14  2  0  0  0  0
 16  8  1  0  0  0  0
 17 21  1  0  0  0  0
 18 22  1  0  0  0  0
 19 10  1  0  0  0  0
 20  3  1  0  0  0  0
 21 19  1  0  0  0  0
 22 19  1  0  0  0  0
 23  9  1  0  0  0  0
 24 23  1  0  0  0  0
 24 20  1  0  0  0  0
 25 13  1  0  0  0  0
 26 13  1  0  0  0  0
 27 13  1  0  0  0  0
M  CHG  2   4   1  11  -1
M  END
>  <ID>
5781465

>  <Supplier>
ChemBridge

>  <clogP>
6.450000000000000e+000

>  <RB>
3

>  <tPSA>
7.095999999999998e+001

>  <Hacc>
3

>  <Hdon>
2

>  <LogSw>
-6.784000000000000e+000

>  <Group>
1

$$$$
5564106
 OpenBabel03312015312D

 21 22  0  0  0  0  0  0  0  0999 V2000
    1.9042    0.6708    0.0000 C   0  0  0  0  0  0  0  0  0  0  0  0
    2.4417    0.0708    0.0000 S   0  0  0  0  0  0  0  0  0  0  0  0
    2.3042    1.3500    0.0000 N   0  0  0  0  0  0  0  0  0  0  0  0
    3.1667    0.4125    0.0000 C   0  0  0  0  0  0  0  0  0  0  0  0
    3.0875    1.1958    0.0000 N   0  0  0  0  0  0  0  0  0  0  0  0
    1.1042    0.6708    0.0000 N   0  0  0  0  0  0  0  0  0  0  0  0
    0.7042   -0.0292    0.0000 C   0  0  0  0  0  0  0  0  0  0  0  0
   -1.6958   -1.4042    0.0000 C   0  0  0  0  0  0  0  0  0  0  0  0
   -2.4958   -1.4042    0.0000 C   0  0  0  0  0  0  0  0  0  0  0  0
   -1.2958   -0.7292    0.0000 C   0  0  0  0  0  0  0  0  0  0  0  0
   -0.4958   -0.7292    0.0000 O   0  0  0  0  0  0  0  0  0  0  0  0
    1.1042   -0.7292    0.0000 O   0  0  0  0  0  0  0  0  0  0  0  0
    3.8875    0.0125    0.0000 S   0  0  0  0  0  0  0  0  0  0  0  0
   -1.6958   -0.0292    0.0000 C   0  0  0  0  0  0  0  0  0  0  0  0
   -2.8958   -0.7292    0.0000 C   0  0  0  0  0  0  0  0  0  0  0  0
   -0.0958   -0.0292    0.0000 C   0  0  0  0  0  0  0  0  0  0  0  0
   -1.2958   -2.1042    0.0000 Cl  0  0  0  0  0  0  0  0  0  0  0  0
   -2.4958   -0.0042    0.0000 C   0  0  0  0  0  0  0  0  0  0  0  0
   -3.6958   -0.7500    0.0000 Cl  0  0  0  0  0  0  0  0  0  0  0  0
    3.9042   -0.7875    0.0000 C   0  0  0  0  0  0  0  0  0  0  0  0
    4.6042   -1.1875    0.0000 C   0  0  0  0  0  0  0  0  0  0  0  0
  2  1  1  0  0  0  0
  3  1  2  0  0  0  0
  4  2  1  0  0  0  0
  4  5  2  0  0  0  0
  5  3  1  0  0  0  0
  6  1  1  0  0  0  0
  7  6  1  0  0  0  0
  8 10  1  0  0  0  0
  9  8  2  0  0  0  0
  9 15  1  0  0  0  0
 10 11  1  0  0  0  0
 11 16  1  0  0  0  0
 12  7  2  0  0  0  0
 13  4  1  0  0  0  0
 14 10  2  0  0  0  0
 15 18  2  0  0  0  0
 16  7  1  0  0  0  0
 17  8  1  0  0  0  0
 18 14  1  0  0  0  0
 19 15  1  0  0  0  0
 20 13  1  0  0  0  0
 21 20  1  0  0  0  0
M  END
>  <ID>
5564106

>  <Supplier>
ChemBridge

>  <clogP>
3.440000000000000e+000

>  <RB>
5

>  <tPSA>
6.411000000000000e+001

>  <Hacc>
4

>  <Hdon>
1

>  <LogSw>
-4.794000000000000e+000

>  <Group>
1

>  <Core>
034

$$$$
5781463
 OpenBabel03312015312D

 27 30  0  0  0  0  0  0  0  0999 V2000
    0.1750   -3.1167    0.0000 C   0  0  0  0  0  0  0  0  0  0  0  0
    0.0125   -3.8792    0.0000 N   0  0  0  0  0  0  0  0  0  0  0  0
   -0.5083   -2.7250    0.0000 C   0  0  0  0  0  0  0  0  0  0  0  0
   -3.0958   -3.7167    0.0000 N   0  3  0  0  0  0  0  0  0  0  0  0
   -1.0833   -3.2500    0.0000 C   0  0  0  0  0  0  0  0  0  0  0  0
   -0.7708   -3.9667    0.0000 C   0  0  0  0  0  0  0  0  0  0  0  0
   -1.8583   -3.1667    0.0000 C   0  0  0  0  0  0  0  0  0  0  0  0
   -2.3208   -3.7917    0.0000 C   0  0  0  0  0  0  0  0  0  0  0  0
    0.8500   -2.7167    0.0000 C   0  0  3  0  0  0  0  0  0  0  0  0
    1.5292   -3.1125    0.0000 N   0  0  0  0  0  0  0  0  0  0  0  0
   -3.4125   -3.0042    0.0000 O   0  5  0  0  0  0  0  0  0  0  0  0
   -3.5583   -4.3500    0.0000 O   0  0  0  0  0  0  0  0  0  0  0  0
   -1.2250   -4.5917    0.0000 C   0  0  0  0  0  0  0  0  0  0  0  0
   -2.0000   -4.5042    0.0000 C   0  0  0  0  0  0  0  0  0  0  0  0
   -0.5083   -1.9375    0.0000 C   0  0  0  0  0  0  0  0  0  0  0  0
    2.2417   -2.7000    0.0000 C   0  0  3  0  0  0  0  0  0  0  0  0
    3.6042   -2.7042    0.0000 C   0  0  0  0  0  0  0  0  0  0  0  0
    2.9250   -3.1000    0.0000 C   0  0  0  0  0  0  0  0  0  0  0  0
    4.2792   -3.1000    0.0000 C   0  0  0  0  0  0  0  0  0  0  0  0
    0.8500   -1.9375    0.0000 C   0  0  0  0  0  0  0  0  0  0  0  0
    0.1750   -1.5417    0.0000 C   0  0  0  0  0  0  0  0  0  0  0  0
    4.9667   -2.7042    0.0000 C   0  0  0  0  0  0  0  0  0  0  0  0
    4.2750   -3.9042    0.0000 C   0  0  0  0  0  0  0  0  0  0  0  0
    2.2417   -1.9167    0.0000 C   0  0  0  0  0  0  0  0  0  0  0  0
    4.9542   -4.3042    0.0000 C   0  0  0  0  0  0  0  0  0  0  0  0
    5.6417   -3.1167    0.0000 C   0  0  0  0  0  0  0  0  0  0  0  0
    5.6292   -3.9167    0.0000 C   0  0  0  0  0  0  0  0  0  0  0  0
  2  1  1  0  0  0  0
  3  1  2  0  0  0  0
  4  8  1  0  0  0  0
  5  3  1  0  0  0  0
  5  6  2  0  0  0  0
  6  2  1  0  0  0  0
  7  5  1  0  0  0  0
  8  7  2  0  0  0  0
  9  1  1  0  0  0  0
 10  9  1  0  0  0  0
 11  4  1  0  0  0  0
 12  4  2  0  0  0  0
 13  6  1  0  0  0  0
 14 13  2  0  0  0  0
 14  8  1  0  0  0  0
 15  3  1  0  0  0  0
 16 10  1  0  0  0  0
 17 18  1  0  0  0  0
 18 16  1  0  0  0  0
 19 17  1  0  0  0  0
 20  9  1  0  0  0  0
 21 20  1  0  0  0  0
 21 15  1  0  0  0  0
 22 19  2  0  0  0  0
 23 19  1  0  0  0  0
 24 16  1  0  0  0  0
 25 23  2  0  0  0  0
 26 22  1  0  0  0  0
 26 27  2  0  0  0  0
 27 25  1  0  0  0  0
M  CHG  2   4   1  11  -1
M  END
>  <ID>
5781463

>  <Supplier>
ChemBridge

>  <clogP>
5.359999999999999e+000

>  <RB>
5

>  <tPSA>
7.095999999999998e+001

>  <Hacc>
3

>  <Hdon>
2

>  <LogSw>
-5.809000000000000e+000

>  <Group>
1

$$$$
5564104
 OpenBabel03312015312D

 31 34  0  0  0  0  0  0  0  0999 V2000
   -0.5333   -0.5542    0.0000 N   0  0  0  0  0  0  0  0  0  0  0  0
   -0.8958   -1.1292    0.0000 C   0  0  0  0  0  0  0  0  0  0  0  0
    0.4375   -1.1667    0.0000 C   0  0  0  0  0  0  0  0  0  0  0  0
   -0.9625   -0.0667    0.0000 C   0  0  0  0  0  0  0  0  0  0  0  0
   -0.5625   -1.7292    0.0000 N   0  0  0  0  0  0  0  0  0  0  0  0
    0.1292   -0.5875    0.0000 C   0  0  3  0  0  0  0  0  0  0  0  0
   -1.5833   -0.3292    0.0000 C   0  0  0  0  0  0  0  0  0  0  0  0
    0.0792   -1.7500    0.0000 C   0  0  0  0  0  0  0  0  0  0  0  0
   -1.5333   -0.9667    0.0000 S   0  0  0  0  0  0  0  0  0  0  0  0
   -2.1708    0.0125    0.0000 C   0  0  0  0  0  0  0  0  0  0  0  0
    1.1042   -1.1792    0.0000 C   0  0  0  0  0  0  0  0  0  0  0  0
   -2.7458   -0.3167    0.0000 C   0  0  0  0  0  0  0  0  0  0  0  0
    0.4792   -0.0292    0.0000 C   0  0  0  0  0  0  0  0  0  0  0  0
   -0.8208    0.5958    0.0000 O   0  0  0  0  0  0  0  0  0  0  0  0
    1.4500   -0.5875    0.0000 O   0  0  0  0  0  0  0  0  0  0  0  0
   -3.3125    0.0125    0.0000 C   0  0  0  0  0  0  0  0  0  0  0  0
    0.1792    0.5625    0.0000 C   0  0  0  0  0  0  0  0  0  0  0  0
    1.1375   -0.0667    0.0000 C   0  0  0  0  0  0  0  0  0  0  0  0
    1.4375   -1.7500    0.0000 O   0  0  0  0  0  0  0  0  0  0  0  0
    0.4000   -2.3500    0.0000 C   0  0  0  0  0  0  0  0  0  0  0  0
    1.2042    1.0833    0.0000 C   0  0  0  0  0  0  0  0  0  0  0  0
   -3.2958    0.6708    0.0000 F   0  0  0  0  0  0  0  0  0  0  0  0
    1.5042    0.4833    0.0000 C   0  0  0  0  0  0  0  0  0  0  0  0
    0.5375    1.1125    0.0000 C   0  0  0  0  0  0  0  0  0  0  0  0
    1.5667    1.6458    0.0000 Cl  0  0  0  0  0  0  0  0  0  0  0  0
   -2.7458   -0.9875    0.0000 C   0  0  0  0  0  0  0  0  0  0  0  0
   -3.9000   -0.3167    0.0000 C   0  0  0  0  0  0  0  0  0  0  0  0
    2.1000   -1.7375    0.0000 C   0  0  0  0  0  0  0  0  0  0  0  0
    2.4167   -1.1667    0.0000 C   0  0  0  0  0  0  0  0  0  0  0  0
   -3.3208   -1.3167    0.0000 C   0  0  0  0  0  0  0  0  0  0  0  0
   -3.9000   -0.9792    0.0000 C   0  0  0  0  0  0  0  0  0  0  0  0
  2  1  1  0  0  0  0
  3  6  1  0  0  0  0
  4  1  1  0  0  0  0
  5  2  2  0  0  0  0
  5  8  1  0  0  0  0
  6  1  1  0  0  0  0
  7  4  1  0  0  0  0
  8  3  2  0  0  0  0
  9  2  1  0  0  0  0
  9  7  1  0  0  0  0
 10  7  2  0  0  0  0
 11  3  1  0  0  0  0
 12 10  1  0  0  0  0
 13  6  1  0  0  0  0
 14  4  2  0  0  0  0
 15 11  2  0  0  0  0
 16 12  1  0  0  0  0
 17 13  2  0  0  0  0
 18 13  1  0  0  0  0
 19 11  1  0  0  0  0
 20  8  1  0  0  0  0
 21 23  1  0  0  0  0
 21 24  2  0  0  0  0
 22 16  1  0  0  0  0
 23 18  2  0  0  0  0
 24 17  1  0  0  0  0
 25 21  1  0  0  0  0
 26 12  2  0  0  0  0
 27 16  2  0  0  0  0
 27 31  1  0  0  0  0
 28 19  1  0  0  0  0
 29 28  1  0  0  0  0
 30 26  1  0  0  0  0
 31 30  2  0  0  0  0
M  END
>  <ID>
5564104

>  <Supplier>
ChemBridge

>  <clogP>
6.580000000000000e+000

>  <RB>
3

>  <tPSA>
6.066000000000000e+001

>  <Hacc>
4

>  <Hdon>
0

>  <LogSw>
-8.150000000000000e+000

>  <Group>
1

>  <Core>
096

$$$$
5564105
 OpenBabel03312015312D

 19 20  0  0  0  0  0  0  0  0999 V2000
    1.1000    0.4958    0.0000 C   0  0  0  0  0  0  0  0  0  0  0  0
    0.2792    0.8125    0.0000 N   0  0  0  0  0  0  0  0  0  0  0  0
   -0.3833    0.2500    0.0000 C   0  0  0  0  0  0  0  0  0  0  0  0
    1.2375   -0.3500    0.0000 C   0  0  0  0  0  0  0  0  0  0  0  0
    1.7375    1.0333    0.0000 C   0  0  0  0  0  0  0  0  0  0  0  0
   -0.2458   -0.5875    0.0000 O   0  0  0  0  0  0  0  0  0  0  0  0
    2.0375   -0.6500    0.0000 C   0  0  0  0  0  0  0  0  0  0  0  0
   -1.1625    0.5500    0.0000 C   0  0  0  0  0  0  0  0  0  0  0  0
    2.5542    0.7333    0.0000 C   0  0  0  0  0  0  0  0  0  0  0  0
    2.7000   -0.0875    0.0000 C   0  0  0  0  0  0  0  0  0  0  0  0
   -1.8208    0.0125    0.0000 C   0  0  0  0  0  0  0  0  0  0  0  0
   -2.6208    0.3125    0.0000 C   0  0  0  0  0  0  0  0  0  0  0  0
    0.5542   -0.9042    0.0000 C   0  0  0  0  0  0  0  0  0  0  0  0
    3.2167    1.2958    0.0000 C   0  0  0  0  0  0  0  0  0  0  0  0
   -3.2833   -0.2500    0.0000 C   0  0  0  0  0  0  0  0  0  0  0  0
   -2.7833    1.1333    0.0000 C   0  0  0  0  0  0  0  0  0  0  0  0
   -3.5625    1.4333    0.0000 C   0  0  0  0  0  0  0  0  0  0  0  0
   -4.0625    0.0500    0.0000 C   0  0  0  0  0  0  0  0  0  0  0  0
   -4.2208    0.8958    0.0000 C   0  0  0  0  0  0  0  0  0  0  0  0
  2  1  1  0  0  0  0
  3  2  1  0  0  0  0
  4  1  1  0  0  0  0
  5  1  2  0  0  0  0
  6  3  2  0  0  0  0
  7  4  2  0  0  0  0
  7 10  1  0  0  0  0
  8  3  1  0  0  0  0
  9  5  1  0  0  0  0
 10  9  2  0  0  0  0
 11  8  1  0  0  0  0
 12 11  1  0  0  0  0
 13  4  1  0  0  0  0
 14  9  1  0  0  0  0
 15 12  1  0  0  0  0
 16 12  2  0  0  0  0
 17 16  1  0  0  0  0
 18 15  2  0  0  0  0
 19 17  2  0  0  0  0
 19 18  1  0  0  0  0
M  END
>  <ID>
5564105

>  <Supplier>
ChemBridge

>  <clogP>
3.600000000000000e+000

>  <RB>
4

>  <tPSA>
2.910000000000000e+001

>  <Hacc>
1

>  <Hdon>
1

>  <LogSw>
-4.122999999999998e+000

>  <Group>
1

$$$$
7805906
 OpenBabel03312015312D

 33 36  0  0  0  0  0  0  0  0999 V2000
    4.7667   -4.4417    0.0000 C   0  0  0  0  0  0  0  0  0  0  0  0
    5.4792   -2.1792    0.0000 C   0  0  0  0  0  0  0  0  0  0  0  0
    5.4750   -4.0292    0.0000 C   0  0  3  0  0  0  0  0  0  0  0  0
    6.1917   -4.4417    0.0000 C   0  0  0  0  0  0  0  0  0  0  0  0
    4.0542   -4.0292    0.0000 C   0  0  0  0  0  0  0  0  0  0  0  0
    4.7667   -5.2667    0.0000 C   0  0  0  0  0  0  0  0  0  0  0  0
    6.1917   -5.2667    0.0000 C   0  0  0  0  0  0  0  0  0  0  0  0
    6.1917   -1.7667    0.0000 C   0  0  0  0  0  0  0  0  0  0  0  0
    3.3417   -4.4417    0.0000 C   0  0  3  0  0  0  0  0  0  0  0  0
    5.4750   -5.6792    0.0000 N   0  0  0  0  0  0  0  0  0  0  0  0
    4.7667   -1.7667    0.0000 C   0  0  0  0  0  0  0  0  0  0  0  0
    6.1917   -0.9417    0.0000 C   0  0  0  0  0  0  0  0  0  0  0  0
    3.3417   -5.2667    0.0000 C   0  0  3  0  0  0  0  0  0  0  0  0
    6.9167   -4.0292    0.0000 C   0  0  0  0  0  0  0  0  0  0  0  0
    4.7667   -0.9417    0.0000 O   0  0  0  0  0  0  0  0  0  0  0  0
    2.6292   -4.0292    0.0000 C   0  0  0  0  0  0  0  0  0  0  0  0
    4.0542   -5.6792    0.0000 C   0  0  0  0  0  0  0  0  0  0  0  0
    5.4875   -0.5292    0.0000 C   0  0  0  0  0  0  0  0  0  0  0  0
    4.0542   -3.2042    0.0000 O   0  0  0  0  0  0  0  0  0  0  0  0
    6.9125   -2.1792    0.0000 O   0  0  0  0  0  0  0  0  0  0  0  0
    6.9167   -3.2042    0.0000 O   0  0  0  0  0  0  0  0  0  0  0  0
    2.6292   -3.2042    0.0000 O   0  0  0  0  0  0  0  0  0  0  0  0
    7.6292   -4.4417    0.0000 O   0  0  0  0  0  0  0  0  0  0  0  0
    1.9167   -4.4417    0.0000 O   0  0  0  0  0  0  0  0  0  0  0  0
    6.9167   -5.6792    0.0000 C   0  0  0  0  0  0  0  0  0  0  0  0
    6.9042   -0.5417    0.0000 C   0  0  0  0  0  0  0  0  0  0  0  0
    2.6292   -5.6792    0.0000 C   0  0  0  0  0  0  0  0  0  0  0  0
    5.4875    0.2875    0.0000 C   0  0  0  0  0  0  0  0  0  0  0  0
    8.3417   -4.0167    0.0000 C   0  0  0  0  0  0  0  0  0  0  0  0
    1.2000   -4.0292    0.0000 C   0  0  0  0  0  0  0  0  0  0  0  0
    6.9125    0.2833    0.0000 C   0  0  0  0  0  0  0  0  0  0  0  0
    9.0542   -4.4292    0.0000 C   0  0  0  0  0  0  0  0  0  0  0  0
    6.2000    0.6958    0.0000 C   0  0  0  0  0  0  0  0  0  0  0  0
  2  3  1  0  0  0  0
  3  1  1  0  0  0  0
  4  3  1  0  0  0  0
  5  1  1  0  0  0  0
  6  1  2  0  0  0  0
  7 10  1  0  0  0  0
  7  4  2  0  0  0  0
  8  2  1  0  0  0  0
  9  5  1  0  0  0  0
 10  6  1  0  0  0  0
 11  2  2  0  0  0  0
 12  8  1  0  0  0  0
 12 18  2  0  0  0  0
 13 17  1  0  0  0  0
 13  9  1  0  0  0  0
 14  4  1  0  0  0  0
 15 11  1  0  0  0  0
 16  9  1  0  0  0  0
 17  6  1  0  0  0  0
 18 15  1  0  0  0  0
 19  5  2  0  0  0  0
 20  8  2  0  0  0  0
 21 14  2  0  0  0  0
 22 16  2  0  0  0  0
 23 14  1  0  0  0  0
 24 16  1  0  0  0  0
 25  7  1  0  0  0  0
 26 12  1  0  0  0  0
 27 13  1  0  0  0  0
 28 18  1  0  0  0  0
 29 23  1  0  0  0  0
 30 24  1  0  0  0  0
 31 26  2  0  0  0  0
 32 29  1  0  0  0  0
 33 28  2  0  0  0  0
 33 31  1  0  0  0  0
M  END
>  <ID>
7805906

>  <Supplier>
ChemBridge

>  <clogP>
2.690000000000000e+000

>  <RB>
3

>  <tPSA>
1.119100000000000e+002

>  <Hacc>
7

>  <Hdon>
1

>  <LogSw>
-3.780000000000000e+000

>  <Group>
1

>  <Core>
085

$$$$
5917767
 OpenBabel03312015312D

 22 24  0  0  0  0  0  0  0  0999 V2000
    3.1792   -1.8667    0.0000 C   0  0  0  0  0  0  0  0  0  0  0  0
    6.9292   -1.3917    0.0000 N   0  3  0  0  0  0  0  0  0  0  0  0
    2.3542   -1.9000    0.0000 C   0  0  0  0  0  0  0  0  0  0  0  0
    3.4667   -2.6292    0.0000 C   0  0  0  0  0  0  0  0  0  0  0  0
    3.6375   -1.1792    0.0000 C   0  0  0  0  0  0  0  0  0  0  0  0
    2.8250   -3.1417    0.0000 O   0  0  0  0  0  0  0  0  0  0  0  0
    2.1292   -2.6917    0.0000 C   0  0  0  0  0  0  0  0  0  0  0  0
    6.1042   -1.3375    0.0000 C   0  0  0  0  0  0  0  0  0  0  0  0
    7.2917   -2.1292    0.0000 O   0  5  0  0  0  0  0  0  0  0  0  0
    4.4625   -1.2292    0.0000 C   0  0  0  0  0  0  0  0  0  0  0  0
    7.3792   -0.7042    0.0000 O   0  0  0  0  0  0  0  0  0  0  0  0
    1.7750   -1.3167    0.0000 C   0  0  0  0  0  0  0  0  0  0  0  0
    3.2667   -0.4417    0.0000 O   0  0  0  0  0  0  0  0  0  0  0  0
    5.7292   -0.5917    0.0000 C   0  0  0  0  0  0  0  0  0  0  0  0
    5.6417   -2.0250    0.0000 C   0  0  0  0  0  0  0  0  0  0  0  0
    4.9125   -0.5417    0.0000 C   0  0  0  0  0  0  0  0  0  0  0  0
    4.8250   -1.9750    0.0000 C   0  0  0  0  0  0  0  0  0  0  0  0
    1.3500   -2.9042    0.0000 C   0  0  0  0  0  0  0  0  0  0  0  0
    0.9792   -1.5250    0.0000 C   0  0  0  0  0  0  0  0  0  0  0  0
    0.7667   -2.3167    0.0000 C   0  0  0  0  0  0  0  0  0  0  0  0
    0.4042   -0.9375    0.0000 O   0  0  0  0  0  0  0  0  0  0  0  0
    0.6292   -0.1417    0.0000 C   0  0  0  0  0  0  0  0  0  0  0  0
  2  8  1  0  0  0  0
  3  1  1  0  0  0  0
  4  1  2  0  0  0  0
  5  1  1  0  0  0  0
  6  4  1  0  0  0  0
  6  7  1  0  0  0  0
  7  3  2  0  0  0  0
  8 15  2  0  0  0  0
  8 14  1  0  0  0  0
  9  2  1  0  0  0  0
 10  5  1  0  0  0  0
 11  2  2  0  0  0  0
 12  3  1  0  0  0  0
 13  5  2  0  0  0  0
 14 16  2  0  0  0  0
 15 17  1  0  0  0  0
 16 10  1  0  0  0  0
 17 10  2  0  0  0  0
 18  7  1  0  0  0  0
 19 12  2  0  0  0  0
 20 19  1  0  0  0  0
 20 18  2  0  0  0  0
 21 19  1  0  0  0  0
 22 21  1  0  0  0  0
M  CHG  2   2   1   9  -1
M  END
>  <ID>
5917767

>  <Supplier>
ChemBridge

>  <clogP>
3.760000000000000e+000

>  <RB>
2

>  <tPSA>
8.258000000000001e+001

>  <Hacc>
5

>  <Hdon>
0

>  <LogSw>
-4.969000000000000e+000

>  <Group>
3

$$$$
7960883
 OpenBabel03312015312D

 19 20  0  0  0  0  0  0  0  0999 V2000
    4.0792    1.4333    0.0000 C   0  0  0  0  0  0  0  0  0  0  0  0
    4.8292    1.4333    0.0000 N   0  0  0  0  0  0  0  0  0  0  0  0
    3.7042    0.7833    0.0000 N   0  0  0  0  0  0  0  0  0  0  0  0
    7.0792    1.4333    0.0000 C   0  0  0  0  0  0  0  0  0  0  0  0
    3.7042    2.0833    0.0000 O   0  0  0  0  0  0  0  0  0  0  0  0
    5.2042    0.7833    0.0000 C   0  0  0  0  0  0  0  0  0  0  0  0
    5.2042    2.0833    0.0000 C   0  0  0  0  0  0  0  0  0  0  0  0
    6.3292    1.4333    0.0000 C   0  0  0  0  0  0  0  0  0  0  0  0
    7.4542    0.7833    0.0000 O   0  0  0  0  0  0  0  0  0  0  0  0
    5.9542    2.0833    0.0000 C   0  0  0  0  0  0  0  0  0  0  0  0
    5.9542    0.7833    0.0000 C   0  0  0  0  0  0  0  0  0  0  0  0
    2.9542    0.7833    0.0000 C   0  0  0  0  0  0  0  0  0  0  0  0
    7.4542    2.0833    0.0000 N   0  0  0  0  0  0  0  0  0  0  0  0
    1.4542    0.7833    0.0000 C   0  0  0  0  0  0  0  0  0  0  0  0
    2.5792    0.1333    0.0000 C   0  0  0  0  0  0  0  0  0  0  0  0
    2.5792    1.4333    0.0000 C   0  0  0  0  0  0  0  0  0  0  0  0
    1.8292    1.4333    0.0000 C   0  0  0  0  0  0  0  0  0  0  0  0
    1.8292    0.1333    0.0000 C   0  0  0  0  0  0  0  0  0  0  0  0
    0.7042    0.7833    0.0000 C   0  0  0  0  0  0  0  0  0  0  0  0
  2  1  1  0  0  0  0
  3  1  1  0  0  0  0
  4  8  1  0  0  0  0
  5  1  2  0  0  0  0
  6  2  1  0  0  0  0
  7  2  1  0  0  0  0
  8 10  1  0  0  0  0
  8 11  1  0  0  0  0
  9  4  2  0  0  0  0
 10  7  1  0  0  0  0
 11  6  1  0  0  0  0
 12  3  1  0  0  0  0
 13  4  1  0  0  0  0
 14 17  2  0  0  0  0
 15 12  1  0  0  0  0
 16 12  2  0  0  0  0
 17 16  1  0  0  0  0
 18 15  2  0  0  0  0
 18 14  1  0  0  0  0
 19 14  1  0  0  0  0
M  END
>  <ID>
7960883

>  <Supplier>
ChemBridge

>  <clogP>
-8.800000000000002e-002

>  <RB>
2

>  <tPSA>
7.543000000000001e+001

>  <Hacc>
2

>  <Hdon>
2

>  <LogSw>
-2.341000000000000e+000

>  <Group>
2

>  <Core>
051

$$$$
6433795
 OpenBabel03312015312D

 27 29  0  0  0  0  0  0  0  0999 V2000
   11.0167    4.7292    0.0000 N   0  3  0  0  0  0  0  0  0  0  0  0
   -8.2500   -2.0375    0.0000 C   0  0  0  0  0  0  0  0  0  0  0  0
   -4.3500    0.1958    0.0000 C   0  0  0  0  0  0  0  0  0  0  0  0
  -12.1000    0.1958    0.0000 C   0  0  0  0  0  0  0  0  0  0  0  0
   11.0167    0.1958    0.0000 C   0  0  0  0  0  0  0  0  0  0  0  0
    7.1667   -1.8792    0.0000 C   0  0  0  0  0  0  0  0  0  0  0  0
    7.1667   -6.4000    0.0000 C   0  0  0  0  0  0  0  0  0  0  0  0
   14.8375    6.9667    0.0000 O   0  5  0  0  0  0  0  0  0  0  0  0
    3.3500   -8.6292    0.0000 C   0  0  0  0  0  0  0  0  0  0  0  0
   -0.4625   -1.8792    0.0000 O   0  0  0  0  0  0  0  0  0  0  0  0
    7.1667    6.9667    0.0000 O   0  0  0  0  0  0  0  0  0  0  0  0
   -4.3500    4.7292    0.0000 O   0  0  0  0  0  0  0  0  0  0  0  0
   -0.4625   -6.4000    0.0000 C   0  0  0  0  0  0  0  0  0  0  0  0
  -12.1000    4.6167    0.0000 C   0  0  0  0  0  0  0  0  0  0  0  0
    3.3500  -13.0292    0.0000 O   0  0  0  0  0  0  0  0  0  0  0  0
   -8.2500   -6.5042    0.0000 C   0  0  0  0  0  0  0  0  0  0  0  0
  -15.9167   -2.0375    0.0000 C   0  0  0  0  0  0  0  0  0  0  0  0
   14.8375   -1.8792    0.0000 C   0  0  0  0  0  0  0  0  0  0  0  0
   11.0167   -8.6292    0.0000 C   0  0  0  0  0  0  0  0  0  0  0  0
   14.8375   -6.4000    0.0000 C   0  0  0  0  0  0  0  0  0  0  0  0
  -15.9542    6.8167    0.0000 C   0  0  0  0  0  0  0  0  0  0  0  0
   -8.2792    6.8542    0.0000 C   0  0  0  0  0  0  0  0  0  0  0  0
  -15.9167   -6.5042    0.0000 C   0  0  0  0  0  0  0  0  0  0  0  0
  -12.1000   -8.6292    0.0000 C   0  0  0  0  0  0  0  0  0  0  0  0
   -8.3167   11.3292    0.0000 C   0  0  0  0  0  0  0  0  0  0  0  0
  -16.0000   11.2875    0.0000 C   0  0  0  0  0  0  0  0  0  0  0  0
  -12.1292   13.5667    0.0000 C   0  0  0  0  0  0  0  0  0  0  0  0
  2  3  1  0  0  0  0
  3 10  1  0  0  0  0
  4  2  2  0  0  0  0
  5  1  1  0  0  0  0
  6  5  1  0  0  0  0
  7  6  2  0  0  0  0
  7 19  1  0  0  0  0
  8  1  1  0  0  0  0
  9  7  1  0  0  0  0
 10 13  1  0  0  0  0
 11  1  2  0  0  0  0
 12  3  2  0  0  0  0
 13  9  1  0  0  0  0
 14  4  1  0  0  0  0
 15  9  2  0  0  0  0
 16  2  1  0  0  0  0
 17  4  1  0  0  0  0
 18  5  2  0  0  0  0
 19 20  2  0  0  0  0
 20 18  1  0  0  0  0
 21 14  2  0  0  0  0
 22 14  1  0  0  0  0
 23 24  1  0  0  0  0
 23 17  2  0  0  0  0
 24 16  2  0  0  0  0
 25 22  2  0  0  0  0
 26 21  1  0  0  0  0
 27 25  1  0  0  0  0
 27 26  2  0  0  0  0
M  CHG  2   1   1   8  -1
M  END
>  <ID>
6433795

>  <Supplier>
ChemBridge

>  <clogP>
3.960000000000000e+000

>  <RB>
6

>  <tPSA>
8.651000000000002e+001

>  <Hacc>
5

>  <Hdon>
0

>  <LogSw>
-5.606999999999998e+000

>  <Group>
3

>  <Core>
217

$$$$
7805907
 OpenBabel03312015312D

 27 28  0  0  0  0  0  0  0  0999 V2000
    8.4292   -3.2667    0.0000 C   0  0  0  0  0  0  0  0  0  0  0  0
    9.2542   -3.2667    0.0000 C   0  0  0  0  0  0  0  0  0  0  0  0
   10.9042   -3.2750    0.0000 C   0  0  0  0  0  0  0  0  0  0  0  0
   10.4917   -3.9875    0.0000 C   0  0  0  0  0  0  0  0  0  0  0  0
   10.4917   -2.5542    0.0000 C   0  0  0  0  0  0  0  0  0  0  0  0
    8.0167   -2.5625    0.0000 N   0  0  0  0  0  0  0  0  0  0  0  0
    9.6667   -3.9875    0.0000 C   0  0  0  0  0  0  0  0  0  0  0  0
    9.6667   -2.5542    0.0000 C   0  0  0  0  0  0  0  0  0  0  0  0
    4.3125   -1.8250    0.0000 C   0  0  0  0  0  0  0  0  0  0  0  0
    4.7167   -2.5417    0.0000 N   0  0  0  0  0  0  0  0  0  0  0  0
    8.0250   -3.9792    0.0000 O   0  0  0  0  0  0  0  0  0  0  0  0
    3.4875   -1.8250    0.0000 O   0  0  0  0  0  0  0  0  0  0  0  0
    7.1917   -2.5542    0.0000 C   0  0  0  0  0  0  0  0  0  0  0  0
   10.9042   -1.8417    0.0000 Cl  0  0  0  0  0  0  0  0  0  0  0  0
   10.9042   -4.7042    0.0000 Cl  0  0  0  0  0  0  0  0  0  0  0  0
    5.5417   -2.5417    0.0000 C   0  0  0  0  0  0  0  0  0  0  0  0
   11.7292   -3.2750    0.0000 O   0  0  0  0  0  0  0  0  0  0  0  0
    6.7875   -1.8375    0.0000 C   0  0  0  0  0  0  0  0  0  0  0  0
    6.7792   -3.2667    0.0000 C   0  0  0  0  0  0  0  0  0  0  0  0
    5.9542   -3.2667    0.0000 C   0  0  0  0  0  0  0  0  0  0  0  0
    5.9625   -1.8292    0.0000 C   0  0  0  0  0  0  0  0  0  0  0  0
    4.7250   -1.1125    0.0000 C   0  0  0  0  0  0  0  0  0  0  0  0
   12.1417   -3.9875    0.0000 C   0  0  0  0  0  0  0  0  0  0  0  0
   12.9667   -3.9875    0.0000 C   0  0  0  0  0  0  0  0  0  0  0  0
   13.3792   -4.7042    0.0000 C   0  0  0  0  0  0  0  0  0  0  0  0
   14.2125   -4.7042    0.0000 C   0  0  0  0  0  0  0  0  0  0  0  0
    8.4292   -1.8417    0.0000 H   0  0  0  0  0  0  0  0  0  0  0  0
  2  1  1  0  0  0  0
  3  5  1  0  0  0  0
  4  7  1  0  0  0  0
  4  3  2  0  0  0  0
  5  8  2  0  0  0  0
  6  1  1  0  0  0  0
  7  2  2  0  0  0  0
  8  2  1  0  0  0  0
  9 10  1  0  0  0  0
 10 16  1  0  0  0  0
 11  1  2  0  0  0  0
 12  9  2  0  0  0  0
 13  6  1  0  0  0  0
 14  5  1  0  0  0  0
 15  4  1  0  0  0  0
 16 20  1  0  0  0  0
 17  3  1  0  0  0  0
 18 13  2  0  0  0  0
 19 13  1  0  0  0  0
 20 19  2  0  0  0  0
 21 18  1  0  0  0  0
 21 16  2  0  0  0  0
 22  9  1  0  0  0  0
 23 17  1  0  0  0  0
 24 23  1  0  0  0  0
 25 24  1  0  0  0  0
 26 25  1  0  0  0  0
 27  6  1  0  0  0  0
M  END
>  <ID>
7805907

>  <Supplier>
ChemBridge

>  <clogP>
4.609999999999999e+000

>  <RB>
5

>  <tPSA>
6.743000000000001e+001

>  <Hacc>
3

>  <Hdon>
2

>  <LogSw>
-6.019000000000000e+000

>  <Group>
1

>  <Core>
157

$$$$
7960882
 OpenBabel03312015312D

 29 32  0  0  0  0  0  0  0  0999 V2000
    7.3917    0.4750    0.0000 C   0  0  0  0  0  0  0  0  0  0  0  0
    6.7042    0.1708    0.0000 N   0  0  0  0  0  0  0  0  0  0  0  0
    5.4167    0.3083    0.0000 C   0  0  0  0  0  0  0  0  0  0  0  0
    6.1000    0.6083    0.0000 C   0  0  0  0  0  0  0  0  0  0  0  0
    8.0417    0.1000    0.0000 N   0  0  0  0  0  0  0  0  0  0  0  0
    7.5500    1.2083    0.0000 S   0  0  0  0  0  0  0  0  0  0  0  0
    4.7667    0.6833    0.0000 O   0  0  0  0  0  0  0  0  0  0  0  0
    8.2917    1.2875    0.0000 C   0  0  0  0  0  0  0  0  0  0  0  0
    5.2542   -0.4292    0.0000 C   0  0  0  0  0  0  0  0  0  0  0  0
    8.6000    0.6000    0.0000 C   0  0  0  0  0  0  0  0  0  0  0  0
    4.2042    0.1833    0.0000 C   0  0  0  0  0  0  0  0  0  0  0  0
    4.5125   -0.5042    0.0000 C   0  0  0  0  0  0  0  0  0  0  0  0
    9.4167    1.9375    0.0000 C   0  0  0  0  0  0  0  0  0  0  0  0
    8.6667    1.9375    0.0000 C   0  0  0  0  0  0  0  0  0  0  0  0
    6.1792    1.3583    0.0000 O   0  0  0  0  0  0  0  0  0  0  0  0
    9.7917    1.2875    0.0000 C   0  0  0  0  0  0  0  0  0  0  0  0
    2.9750   -0.2167    0.0000 S   0  0  0  0  0  0  0  0  0  0  0  0
    3.4750    0.3333    0.0000 C   0  0  0  0  0  0  0  0  0  0  0  0
    9.4167    0.6375    0.0000 Cl  0  0  0  0  0  0  0  0  0  0  0  0
    2.2417   -0.0667    0.0000 C   0  0  0  0  0  0  0  0  0  0  0  0
    9.7917    2.5833    0.0000 C   0  0  0  0  0  0  0  0  0  0  0  0
   10.5417    1.2875    0.0000 C   0  0  0  0  0  0  0  0  0  0  0  0
    2.0042    0.6458    0.0000 C   0  0  0  0  0  0  0  0  0  0  0  0
    1.7375   -0.6250    0.0000 C   0  0  0  0  0  0  0  0  0  0  0  0
   10.5417    2.5833    0.0000 C   0  0  0  0  0  0  0  0  0  0  0  0
   10.9167    1.9375    0.0000 C   0  0  0  0  0  0  0  0  0  0  0  0
    1.0042   -0.4667    0.0000 C   0  0  0  0  0  0  0  0  0  0  0  0
    1.2750    0.8000    0.0000 C   0  0  0  0  0  0  0  0  0  0  0  0
    0.7667    0.2458    0.0000 C   0  0  0  0  0  0  0  0  0  0  0  0
  2  1  1  0  0  0  0
  3  4  1  0  0  0  0
  4  2  1  0  0  0  0
  5  1  2  0  0  0  0
  6  1  1  0  0  0  0
  7  3  1  0  0  0  0
  8  6  1  0  0  0  0
  8 10  2  0  0  0  0
  9  3  2  0  0  0  0
 10  5  1  0  0  0  0
 11  7  1  0  0  0  0
 11 12  2  0  0  0  0
 12  9  1  0  0  0  0
 13 14  1  0  0  0  0
 14  8  1  0  0  0  0
 15  4  2  0  0  0  0
 16 13  1  0  0  0  0
 17 18  1  0  0  0  0
 18 11  1  0  0  0  0
 19 16  1  0  0  0  0
 20 17  1  0  0  0  0
 21 13  2  0  0  0  0
 22 16  2  0  0  0  0
 23 20  2  0  0  0  0
 24 20  1  0  0  0  0
 25 21  1  0  0  0  0
 26 25  2  0  0  0  0
 26 22  1  0  0  0  0
 27 24  2  0  0  0  0
 28 23  1  0  0  0  0
 29 27  1  0  0  0  0
 29 28  2  0  0  0  0
M  END
>  <ID>
7960882

>  <Supplier>
ChemBridge

>  <clogP>
5.969000000000000e+000

>  <RB>
7

>  <tPSA>
5.513000000000000e+001

>  <Hacc>
3

>  <Hdon>
1

>  <LogSw>
-7.512000000000000e+000

>  <Group>
1

>  <Core>
472

$$$$
7646361
 OpenBabel03312015312D

 33 36  0  0  0  0  0  0  0  0999 V2000
   -3.0333    5.7292    0.0000 N   0  0  0  0  0  0  0  0  0  0  0  0
   -3.3875    5.5292    0.0000 C   0  0  0  0  0  0  0  0  0  0  0  0
   -3.0333    6.1542    0.0000 C   0  0  0  0  0  0  0  0  0  0  0  0
   -3.7458    5.7292    0.0000 N   0  0  0  0  0  0  0  0  0  0  0  0
   -3.3958    6.3625    0.0000 C   0  0  0  0  0  0  0  0  0  0  0  0
   -3.7500    6.1542    0.0000 C   0  0  0  0  0  0  0  0  0  0  0  0
   -3.3875    5.1042    0.0000 S   0  0  0  0  0  0  0  0  0  0  0  0
   -2.6708    5.5292    0.0000 C   0  0  0  0  0  0  0  0  0  0  0  0
   -2.6708    4.2792    0.0000 N   0  0  0  0  0  0  0  0  0  0  0  0
   -2.6708    3.8625    0.0000 C   0  0  0  0  0  0  0  0  0  0  0  0
   -3.0333    3.6583    0.0000 C   0  0  0  0  0  0  0  0  0  0  0  0
   -3.0333    4.4792    0.0000 C   0  0  0  0  0  0  0  0  0  0  0  0
   -2.6625    6.3625    0.0000 O   0  0  0  0  0  0  0  0  0  0  0  0
   -3.0250    3.2375    0.0000 C   0  0  0  0  0  0  0  0  0  0  0  0
   -3.3958    4.2792    0.0000 O   0  0  0  0  0  0  0  0  0  0  0  0
   -2.3083    3.6583    0.0000 C   0  0  0  0  0  0  0  0  0  0  0  0
   -3.0333    4.9042    0.0000 C   0  0  0  0  0  0  0  0  0  0  0  0
   -2.6750    5.1042    0.0000 C   0  0  0  0  0  0  0  0  0  0  0  0
   -2.3125    5.7292    0.0000 C   0  0  0  0  0  0  0  0  0  0  0  0
   -2.6708    3.0333    0.0000 C   0  0  0  0  0  0  0  0  0  0  0  0
   -3.3958    6.7792    0.0000 C   0  0  0  0  0  0  0  0  0  0  0  0
   -2.3083    3.2375    0.0000 C   0  0  0  0  0  0  0  0  0  0  0  0
   -3.3958    3.8708    0.0000 O   0  0  0  0  0  0  0  0  0  0  0  0
   -2.3208    4.9042    0.0000 C   0  0  0  0  0  0  0  0  0  0  0  0
   -1.9500    5.5292    0.0000 C   0  0  0  0  0  0  0  0  0  0  0  0
   -1.9583    5.1042    0.0000 C   0  0  0  0  0  0  0  0  0  0  0  0
   -2.6708    2.6125    0.0000 O   0  0  0  0  0  0  0  0  0  0  0  0
   -4.1125    6.3625    0.0000 C   0  0  0  0  0  0  0  0  0  0  0  0
   -1.5958    4.9000    0.0000 C   0  0  0  0  0  0  0  0  0  0  0  0
   -3.7583    3.6583    0.0000 C   0  0  0  0  0  0  0  0  0  0  0  0
   -2.3083    2.4083    0.0000 C   0  0  0  0  0  0  0  0  0  0  0  0
   -3.7583    6.9875    0.0000 C   0  0  0  0  0  0  0  0  0  0  0  0
   -4.1125    6.7792    0.0000 C   0  0  0  0  0  0  0  0  0  0  0  0
  2  1  1  0  0  0  0
  3  1  1  0  0  0  0
  4  2  2  0  0  0  0
  5  3  1  0  0  0  0
  6  5  2  0  0  0  0
  6  4  1  0  0  0  0
  7  2  1  0  0  0  0
  8  1  1  0  0  0  0
  9 12  1  0  0  0  0
 10  9  1  0  0  0  0
 11 10  2  0  0  0  0
 12 17  1  0  0  0  0
 13  3  2  0  0  0  0
 14 11  1  0  0  0  0
 14 20  2  0  0  0  0
 15 12  2  0  0  0  0
 16 10  1  0  0  0  0
 17  7  1  0  0  0  0
 18  8  2  0  0  0  0
 19  8  1  0  0  0  0
 20 22  1  0  0  0  0
 21  5  1  0  0  0  0
 22 16  2  0  0  0  0
 23 11  1  0  0  0  0
 24 18  1  0  0  0  0
 24 26  2  0  0  0  0
 25 19  2  0  0  0  0
 26 25  1  0  0  0  0
 27 20  1  0  0  0  0
 28  6  1  0  0  0  0
 29 26  1  0  0  0  0
 30 23  1  0  0  0  0
 31 27  1  0  0  0  0
 32 21  2  0  0  0  0
 33 32  1  0  0  0  0
 33 28  2  0  0  0  0
M  END
>  <ID>
7646361

>  <Supplier>
ChemBridge

>  <clogP>
3.633000000000000e+000

>  <RB>
5

>  <tPSA>
8.244999999999999e+001

>  <Hacc>
5

>  <Hdon>
1

>  <LogSw>
-6.061000000000000e+000

>  <Group>
3

>  <Core>
018

$$$$
7214755
 OpenBabel03312015312D

 28 31  0  0  0  0  0  0  0  0999 V2000
    3.4292   -0.6125    0.0000 N   0  0  0  0  0  0  0  0  0  0  0  0
    3.4042   -1.4417    0.0000 C   0  0  0  0  0  0  0  0  0  0  0  0
    4.1125   -1.8667    0.0000 N   0  0  0  0  0  0  0  0  0  0  0  0
    2.6417   -0.3375    0.0000 C   0  0  0  0  0  0  0  0  0  0  0  0
    4.8542   -0.6417    0.0000 N   0  0  0  0  0  0  0  0  0  0  0  0
    4.1500   -0.2167    0.0000 C   0  0  0  0  0  0  0  0  0  0  0  0
    2.6167   -1.6750    0.0000 S   0  0  0  0  0  0  0  0  0  0  0  0
    2.1417   -0.9917    0.0000 C   0  0  0  0  0  0  0  0  0  0  0  0
    4.8375   -1.4750    0.0000 C   0  0  0  0  0  0  0  0  0  0  0  0
    5.5792   -0.2417    0.0000 C   0  0  0  0  0  0  0  0  0  0  0  0
    6.2792   -0.6792    0.0000 C   0  0  0  0  0  0  0  0  0  0  0  0
    6.9917   -0.2792    0.0000 C   0  0  0  0  0  0  0  0  0  0  0  0
    1.3167   -0.9750    0.0000 C   0  0  0  0  0  0  0  0  0  0  0  0
    2.4125    0.4583    0.0000 O   0  0  0  0  0  0  0  0  0  0  0  0
    0.9042   -1.6875    0.0000 C   0  0  0  0  0  0  0  0  0  0  0  0
    7.7042   -0.7042    0.0000 C   0  0  0  0  0  0  0  0  0  0  0  0
    0.0792   -1.7667    0.0000 C   0  0  0  0  0  0  0  0  0  0  0  0
    7.6875   -1.5292    0.0000 O   0  0  0  0  0  0  0  0  0  0  0  0
   -0.0958   -2.5750    0.0000 C   0  0  0  0  0  0  0  0  0  0  0  0
    5.5875    0.5750    0.0000 C   0  0  0  0  0  0  0  0  0  0  0  0
    7.0167    0.5458    0.0000 C   0  0  0  0  0  0  0  0  0  0  0  0
    6.3042    0.9708    0.0000 C   0  0  0  0  0  0  0  0  0  0  0  0
    8.4250   -0.3042    0.0000 C   0  0  0  0  0  0  0  0  0  0  0  0
    0.5167   -3.1250    0.0000 C   0  0  0  0  0  0  0  0  0  0  0  0
   -0.8833   -2.8167    0.0000 C   0  0  0  0  0  0  0  0  0  0  0  0
   -1.0583   -3.6250    0.0000 C   0  0  0  0  0  0  0  0  0  0  0  0
    0.3417   -3.9292    0.0000 C   0  0  0  0  0  0  0  0  0  0  0  0
   -0.4500   -4.1792    0.0000 C   0  0  0  0  0  0  0  0  0  0  0  0
  2  1  1  0  0  0  0
  3  2  2  0  0  0  0
  4  1  1  0  0  0  0
  5  6  1  0  0  0  0
  6  1  1  0  0  0  0
  7  2  1  0  0  0  0
  7  8  1  0  0  0  0
  8  4  1  0  0  0  0
  9  5  1  0  0  0  0
  9  3  1  0  0  0  0
 10  5  1  0  0  0  0
 11 10  2  0  0  0  0
 12 11  1  0  0  0  0
 13  8  2  0  0  0  0
 14  4  2  0  0  0  0
 15 13  1  0  0  0  0
 16 12  1  0  0  0  0
 17 15  2  0  0  0  0
 18 16  2  0  0  0  0
 19 17  1  0  0  0  0
 20 10  1  0  0  0  0
 21 22  1  0  0  0  0
 21 12  2  0  0  0  0
 22 20  2  0  0  0  0
 23 16  1  0  0  0  0
 24 19  1  0  0  0  0
 25 19  2  0  0  0  0
 26 25  1  0  0  0  0
 27 24  2  0  0  0  0
 28 26  2  0  0  0  0
 28 27  1  0  0  0  0
M  END
>  <ID>
7214755

>  <Supplier>
ChemBridge

>  <clogP>
4.850000000000000e+000

>  <RB>
4

>  <tPSA>
5.467000000000000e+001

>  <Hacc>
3

>  <Hdon>
0

>  <LogSw>
-6.181000000000000e+000

>  <Group>
2

$$$$
6290615
 OpenBabel03312015312D

 18 19  0  0  0  0  0  0  0  0999 V2000
   -2.4125   -3.5417    0.0000 C   0  0  0  0  0  0  0  0  0  0  0  0
   -2.3875   -2.9417    0.0000 C   0  0  0  0  0  0  0  0  0  0  0  0
   -2.9458   -3.8167    0.0000 N   0  0  0  0  0  0  0  0  0  0  0  0
   -3.4583   -4.1167    0.0000 C   0  0  0  0  0  0  0  0  0  0  0  0
   -3.4583   -4.7125    0.0000 C   0  0  0  0  0  0  0  0  0  0  0  0
   -1.8583   -2.6625    0.0000 C   0  0  0  0  0  0  0  0  0  0  0  0
   -1.9083   -3.8625    0.0000 O   0  0  0  0  0  0  0  0  0  0  0  0
   -3.9750   -5.0125    0.0000 C   0  0  0  0  0  0  0  0  0  0  0  0
   -3.9750   -3.8167    0.0000 C   0  0  0  0  0  0  0  0  0  0  0  0
   -4.4875   -4.7125    0.0000 C   0  0  0  0  0  0  0  0  0  0  0  0
   -1.3458   -2.9625    0.0000 F   0  0  0  0  0  0  0  0  0  0  0  0
   -4.4875   -4.1167    0.0000 C   0  0  0  0  0  0  0  0  0  0  0  0
   -5.0083   -5.0125    0.0000 I   0  0  0  0  0  0  0  0  0  0  0  0
   -2.9000   -2.6167    0.0000 C   0  0  0  0  0  0  0  0  0  0  0  0
   -2.9458   -5.0125    0.0000 C   0  0  0  0  0  0  0  0  0  0  0  0
   -1.8333   -2.0667    0.0000 C   0  0  0  0  0  0  0  0  0  0  0  0
   -2.8708   -2.0167    0.0000 C   0  0  0  0  0  0  0  0  0  0  0  0
   -2.3375   -1.7417    0.0000 C   0  0  0  0  0  0  0  0  0  0  0  0
  2  1  1  0  0  0  0
  3  1  1  0  0  0  0
  4  3  1  0  0  0  0
  5  4  1  0  0  0  0
  6  2  2  0  0  0  0
  7  1  2  0  0  0  0
  8  5  2  0  0  0  0
  8 10  1  0  0  0  0
  9  4  2  0  0  0  0
 10 12  2  0  0  0  0
 11  6  1  0  0  0  0
 12  9  1  0  0  0  0
 13 10  1  0  0  0  0
 14  2  1  0  0  0  0
 15  5  1  0  0  0  0
 16  6  1  0  0  0  0
 17 14  2  0  0  0  0
 18 17  1  0  0  0  0
 18 16  2  0  0  0  0
M  END
>  <ID>
6290615

>  <Supplier>
ChemBridge

>  <clogP>
3.670000000000000e+000

>  <RB>
2

>  <tPSA>
2.910000000000000e+001

>  <Hacc>
1

>  <Hdon>
1

>  <LogSw>
-4.924000000000000e+000

>  <Group>
3

>  <Core>
511

$$$$
6228354
 OpenBabel03312015312D

 26 27  0  0  0  0  0  0  0  0999 V2000
    6.2167   -4.4667    0.0000 S   0  0  0  0  0  0  0  0  0  0  0  0
    6.2167   -3.6417    0.0000 N   0  0  0  0  0  0  0  0  0  0  0  0
    6.9292   -3.2292    0.0000 C   0  0  0  0  0  0  0  0  0  0  0  0
    7.6417   -3.6417    0.0000 C   0  0  0  0  0  0  0  0  0  0  0  0
    8.3625   -3.2292    0.0000 N   0  0  0  0  0  0  0  0  0  0  0  0
    9.0750   -3.6417    0.0000 C   0  0  0  0  0  0  0  0  0  0  0  0
    9.7875   -3.2250    0.0000 C   0  0  0  0  0  0  0  0  0  0  0  0
    6.8042   -5.0500    0.0000 O   0  0  0  0  0  0  0  0  0  0  0  0
    7.0417   -4.4667    0.0000 O   0  0  0  0  0  0  0  0  0  0  0  0
    5.5042   -3.2292    0.0000 C   0  0  0  0  0  0  0  0  0  0  0  0
   10.5042   -3.6417    0.0000 C   0  0  0  0  0  0  0  0  0  0  0  0
    7.6417   -4.4667    0.0000 O   0  0  0  0  0  0  0  0  0  0  0  0
    9.0667   -4.4667    0.0000 C   0  0  0  0  0  0  0  0  0  0  0  0
    5.5042   -2.4000    0.0000 C   0  0  0  0  0  0  0  0  0  0  0  0
    4.7917   -3.6542    0.0000 C   0  0  0  0  0  0  0  0  0  0  0  0
   10.5000   -4.4792    0.0000 C   0  0  0  0  0  0  0  0  0  0  0  0
    5.5042   -4.8750    0.0000 C   0  0  0  0  0  0  0  0  0  0  0  0
    4.0667   -2.4000    0.0000 C   0  0  0  0  0  0  0  0  0  0  0  0
    9.7792   -4.8875    0.0000 C   0  0  0  0  0  0  0  0  0  0  0  0
    9.7917   -2.3917    0.0000 O   0  0  0  0  0  0  0  0  0  0  0  0
    4.0667   -3.2292    0.0000 C   0  0  0  0  0  0  0  0  0  0  0  0
    4.7917   -1.9875    0.0000 C   0  0  0  0  0  0  0  0  0  0  0  0
    3.3542   -1.9875    0.0000 Br  0  0  0  0  0  0  0  0  0  0  0  0
   11.2167   -4.8917    0.0000 O   0  0  0  0  0  0  0  0  0  0  0  0
   10.5125   -1.9792    0.0000 C   0  0  0  0  0  0  0  0  0  0  0  0
   11.2125   -5.7250    0.0000 C   0  0  0  0  0  0  0  0  0  0  0  0
  2  1  1  0  0  0  0
  3  2  1  0  0  0  0
  4  3  1  0  0  0  0
  5  4  1  0  0  0  0
  6  5  1  0  0  0  0
  7  6  1  0  0  0  0
  8  1  2  0  0  0  0
  9  1  2  0  0  0  0
 10  2  1  0  0  0  0
 11  7  2  0  0  0  0
 11 16  1  0  0  0  0
 12  4  2  0  0  0  0
 13  6  2  0  0  0  0
 14 10  2  0  0  0  0
 15 10  1  0  0  0  0
 16 19  2  0  0  0  0
 17  1  1  0  0  0  0
 18 21  1  0  0  0  0
 18 22  2  0  0  0  0
 19 13  1  0  0  0  0
 20  7  1  0  0  0  0
 21 15  2  0  0  0  0
 22 14  1  0  0  0  0
 23 18  1  0  0  0  0
 24 16  1  0  0  0  0
 25 20  1  0  0  0  0
 26 24  1  0  0  0  0
M  END
>  <ID>
6228354

>  <Supplier>
ChemBridge

>  <clogP>
2.740000000000000e+000

>  <RB>
4

>  <tPSA>
8.494000000000000e+001

>  <Hacc>
5

>  <Hdon>
1

>  <LogSw>
-4.771000000000003e+000

>  <Group>
2

>  <Core>
084

$$$$
5802267
 OpenBabel03312015312D

 30 34  0  0  0  0  0  0  0  0999 V2000
   -0.7125   -0.3542    0.0000 C   0  0  0  0  0  0  0  0  0  0  0  0
   -1.0333   -1.2167    0.0000 N   0  0  0  0  0  0  0  0  0  0  0  0
   -1.4333    0.2000    0.0000 C   0  0  0  0  0  0  0  0  0  0  0  0
   -1.9333   -1.1792    0.0000 N   0  0  0  0  0  0  0  0  0  0  0  0
   -2.1958   -0.3167    0.0000 C   0  0  0  0  0  0  0  0  0  0  0  0
   -0.4708   -1.9000    0.0000 C   0  0  0  0  0  0  0  0  0  0  0  0
   -1.4333    1.1208    0.0000 C   0  0  0  0  0  0  0  0  0  0  0  0
    0.1875   -0.2167    0.0000 N   0  0  0  0  0  0  0  0  0  0  0  0
    0.4292   -1.7542    0.0000 C   0  0  0  0  0  0  0  0  0  0  0  0
    0.7500   -0.9167    0.0000 C   0  0  0  0  0  0  0  0  0  0  0  0
   -0.6500    1.5625    0.0000 C   0  0  0  0  0  0  0  0  0  0  0  0
   -3.0500    0.0000    0.0000 C   0  0  0  0  0  0  0  0  0  0  0  0
   -0.7958   -2.7542    0.0000 O   0  0  0  0  0  0  0  0  0  0  0  0
   -0.6500    2.4833    0.0000 C   0  0  0  0  0  0  0  0  0  0  0  0
   -2.2125    1.5625    0.0000 C   0  0  0  0  0  0  0  0  0  0  0  0
   -3.7333   -0.6167    0.0000 C   0  0  0  0  0  0  0  0  0  0  0  0
    1.6500   -0.7792    0.0000 C   0  0  0  0  0  0  0  0  0  0  0  0
    0.1500    1.1208    0.0000 C   0  0  0  0  0  0  0  0  0  0  0  0
   -2.2125    2.4833    0.0000 C   0  0  0  0  0  0  0  0  0  0  0  0
   -1.4333    2.9208    0.0000 C   0  0  0  0  0  0  0  0  0  0  0  0
    0.1500    2.9208    0.0000 C   0  0  0  0  0  0  0  0  0  0  0  0
   -4.5958   -0.3167    0.0000 C   0  0  0  0  0  0  0  0  0  0  0  0
   -3.5708   -1.5000    0.0000 C   0  0  0  0  0  0  0  0  0  0  0  0
    1.9875    0.0833    0.0000 C   0  0  0  0  0  0  0  0  0  0  0  0
    0.9292    1.5625    0.0000 C   0  0  0  0  0  0  0  0  0  0  0  0
    2.8667    0.2208    0.0000 C   0  0  0  0  0  0  0  0  0  0  0  0
    0.9292    2.4833    0.0000 C   0  0  0  0  0  0  0  0  0  0  0  0
   -4.2500   -2.0792    0.0000 C   0  0  0  0  0  0  0  0  0  0  0  0
   -5.2708   -0.9000    0.0000 C   0  0  0  0  0  0  0  0  0  0  0  0
   -5.1125   -1.7542    0.0000 C   0  0  0  0  0  0  0  0  0  0  0  0
  2  1  1  0  0  0  0
  3  1  2  0  0  0  0
  4  2  1  0  0  0  0
  4  5  2  0  0  0  0
  5  3  1  0  0  0  0
  6  2  1  0  0  0  0
  6  9  1  0  0  0  0
  7  3  1  0  0  0  0
  8  1  1  0  0  0  0
  9 10  2  0  0  0  0
 10  8  1  0  0  0  0
 11  7  2  0  0  0  0
 12  5  1  0  0  0  0
 13  6  2  0  0  0  0
 14 11  1  0  0  0  0
 15  7  1  0  0  0  0
 16 12  1  0  0  0  0
 17 10  1  0  0  0  0
 18 11  1  0  0  0  0
 19 15  2  0  0  0  0
 20 19  1  0  0  0  0
 20 14  2  0  0  0  0
 21 14  1  0  0  0  0
 21 27  2  0  0  0  0
 22 16  2  0  0  0  0
 23 16  1  0  0  0  0
 24 17  1  0  0  0  0
 25 18  2  0  0  0  0
 26 24  1  0  0  0  0
 27 25  1  0  0  0  0
 28 23  2  0  0  0  0
 29 22  1  0  0  0  0
 30 28  1  0  0  0  0
 30 29  2  0  0  0  0
M  END
>  <ID>
5802267

>  <Supplier>
ChemBridge

>  <clogP>
5.370000000000000e+000

>  <RB>
3

>  <tPSA>
5.016000000000000e+001

>  <Hacc>
3

>  <Hdon>
1

>  <LogSw>
-6.654999999999998e+000

>  <Group>
1

>  <Core>
057

$$$$
5802261
 OpenBabel03312015312D

 22 24  0  0  0  0  0  0  0  0999 V2000
    2.7542   -0.7667    0.0000 N   0  0  0  0  0  0  0  0  0  0  0  0
    2.8167   -1.5167    0.0000 C   0  0  0  0  0  0  0  0  0  0  0  0
    3.9375   -1.0500    0.0000 C   0  0  0  0  0  0  0  0  0  0  0  0
    3.4500   -0.4792    0.0000 C   0  0  0  0  0  0  0  0  0  0  0  0
    3.5417   -1.6917    0.0000 S   0  0  0  0  0  0  0  0  0  0  0  0
    4.6792   -0.9917    0.0000 C   0  0  0  0  0  0  0  0  0  0  0  0
    2.2500   -2.0042    0.0000 N   0  0  0  0  0  0  0  0  0  0  0  0
    1.5417   -1.7542    0.0000 N   0  0  0  0  0  0  0  0  0  0  0  0
    3.6167    0.2458    0.0000 O   0  0  0  0  0  0  0  0  0  0  0  0
    0.9667   -2.2500    0.0000 C   0  0  0  0  0  0  0  0  0  0  0  0
    5.1125   -1.6042    0.0000 C   0  0  0  0  0  0  0  0  0  0  0  0
    0.2667   -2.0000    0.0000 C   0  0  0  0  0  0  0  0  0  0  0  0
    4.7917   -2.2792    0.0000 C   0  0  0  0  0  0  0  0  0  0  0  0
    5.8542   -1.5417    0.0000 C   0  0  0  0  0  0  0  0  0  0  0  0
   -0.3083   -2.4875    0.0000 C   0  0  0  0  0  0  0  0  0  0  0  0
    0.1250   -1.2625    0.0000 C   0  0  0  0  0  0  0  0  0  0  0  0
   -0.5833   -1.0167    0.0000 C   0  0  0  0  0  0  0  0  0  0  0  0
    5.2167   -2.9000    0.0000 C   0  0  0  0  0  0  0  0  0  0  0  0
    6.2875   -2.1625    0.0000 C   0  0  0  0  0  0  0  0  0  0  0  0
   -1.0125   -2.2417    0.0000 C   0  0  0  0  0  0  0  0  0  0  0  0
   -1.1500   -1.5042    0.0000 C   0  0  0  0  0  0  0  0  0  0  0  0
    5.9667   -2.8417    0.0000 C   0  0  0  0  0  0  0  0  0  0  0  0
  2  1  1  0  0  0  0
  3  4  1  0  0  0  0
  3  5  1  0  0  0  0
  4  1  1  0  0  0  0
  5  2  1  0  0  0  0
  6  3  2  0  0  0  0
  7  2  2  0  0  0  0
  8  7  1  0  0  0  0
  9  4  2  0  0  0  0
 10  8  2  0  0  0  0
 11  6  1  0  0  0  0
 12 10  1  0  0  0  0
 13 11  1  0  0  0  0
 14 11  2  0  0  0  0
 15 12  2  0  0  0  0
 16 12  1  0  0  0  0
 17 16  2  0  0  0  0
 18 13  2  0  0  0  0
 19 14  1  0  0  0  0
 20 15  1  0  0  0  0
 20 21  2  0  0  0  0
 21 17  1  0  0  0  0
 22 19  2  0  0  0  0
 22 18  1  0  0  0  0
M  END
>  <ID>
5802261

>  <Supplier>
ChemBridge

>  <clogP>
4.010000000000000e+000

>  <RB>
3

>  <tPSA>
5.381999999999999e+001

>  <Hacc>
3

>  <Hdon>
1

>  <LogSw>
-4.866000000000000e+000

>  <Group>
1

>  <Core>
004

$$$$
6682789
 OpenBabel03312015312D

 25 28  0  0  0  0  0  0  0  0999 V2000
    5.1042   -1.7375    0.0000 N   0  0  0  0  0  0  0  0  0  0  0  0
    4.7667   -2.4917    0.0000 C   0  0  0  0  0  0  0  0  0  0  0  0
    3.7792   -1.5917    0.0000 C   0  0  0  0  0  0  0  0  0  0  0  0
    4.4917   -1.1792    0.0000 C   0  0  0  0  0  0  0  0  0  0  0  0
    3.9417   -2.4000    0.0000 S   0  0  0  0  0  0  0  0  0  0  0  0
    3.0292   -1.2542    0.0000 C   0  0  0  0  0  0  0  0  0  0  0  0
    2.3542   -1.7417    0.0000 C   0  0  0  0  0  0  0  0  0  0  0  0
    0.9292   -1.8792    0.0000 C   0  0  0  0  0  0  0  0  0  0  0  0
    1.0042   -2.7042    0.0000 C   0  0  0  0  0  0  0  0  0  0  0  0
    5.9125   -1.5667    0.0000 C   0  0  0  0  0  0  0  0  0  0  0  0
    1.7625   -3.0500    0.0000 C   0  0  0  0  0  0  0  0  0  0  0  0
    1.6000   -1.3917    0.0000 C   0  0  0  0  0  0  0  0  0  0  0  0
    2.4375   -2.5625    0.0000 C   0  0  0  0  0  0  0  0  0  0  0  0
    5.1750   -3.2042    0.0000 O   0  0  0  0  0  0  0  0  0  0  0  0
    0.4500   -3.3250    0.0000 O   0  0  0  0  0  0  0  0  0  0  0  0
    1.6750   -3.8750    0.0000 O   0  0  0  0  0  0  0  0  0  0  0  0
    4.5875   -0.3625    0.0000 O   0  0  0  0  0  0  0  0  0  0  0  0
    0.8667   -4.0417    0.0000 C   0  0  0  0  0  0  0  0  0  0  0  0
    6.4625   -2.1917    0.0000 C   0  0  0  0  0  0  0  0  0  0  0  0
    6.1667   -0.7917    0.0000 C   0  0  0  0  0  0  0  0  0  0  0  0
    1.5167   -0.5792    0.0000 Cl  0  0  0  0  0  0  0  0  0  0  0  0
    7.5292   -1.2417    0.0000 C   0  0  0  0  0  0  0  0  0  0  0  0
    6.9792   -0.6250    0.0000 C   0  0  0  0  0  0  0  0  0  0  0  0
    7.2667   -2.0250    0.0000 C   0  0  0  0  0  0  0  0  0  0  0  0
    8.3375   -1.0792    0.0000 Cl  0  0  0  0  0  0  0  0  0  0  0  0
  2  1  1  0  0  0  0
  3  4  1  0  0  0  0
  4  1  1  0  0  0  0
  5  2  1  0  0  0  0
  5  3  1  0  0  0  0
  6  3  2  0  0  0  0
  7  6  1  0  0  0  0
  8 12  1  0  0  0  0
  9 11  1  0  0  0  0
  9  8  2  0  0  0  0
 10  1  1  0  0  0  0
 11 13  2  0  0  0  0
 12  7  2  0  0  0  0
 13  7  1  0  0  0  0
 14  2  2  0  0  0  0
 15  9  1  0  0  0  0
 16 11  1  0  0  0  0
 17  4  2  0  0  0  0
 18 16  1  0  0  0  0
 18 15  1  0  0  0  0
 19 10  2  0  0  0  0
 20 10  1  0  0  0  0
 21 12  1  0  0  0  0
 22 23  1  0  0  0  0
 22 24  2  0  0  0  0
 23 20  2  0  0  0  0
 24 19  1  0  0  0  0
 25 22  1  0  0  0  0
M  END
>  <ID>
6682789

>  <Supplier>
ChemBridge

>  <clogP>
5.070000000000000e+000

>  <RB>
2

>  <tPSA>
5.584000000000000e+001

>  <Hacc>
4

>  <Hdon>
0

>  <LogSw>
-6.404000000000000e+000

>  <Group>
2

>  <Core>
002

$$$$
7960889
 OpenBabel03312015312D

 32 34  0  0  0  0  0  0  0  0999 V2000
    7.2417    3.1083    0.0000 C   0  0  0  0  0  0  0  0  0  0  0  0
    6.0292    3.1083    0.0000 N   0  0  0  0  0  0  0  0  0  0  0  0
    6.6292    3.5458    0.0000 C   0  0  0  0  0  0  0  0  0  0  0  0
    7.9542    3.3375    0.0000 C   0  0  0  0  0  0  0  0  0  0  0  0
    7.0042    2.3958    0.0000 C   0  0  0  0  0  0  0  0  0  0  0  0
    8.1042    4.0667    0.0000 C   0  0  0  0  0  0  0  0  0  0  0  0
    6.2542    2.3958    0.0000 C   0  0  0  0  0  0  0  0  0  0  0  0
    1.5000    2.5250    0.0000 C   0  0  0  0  0  0  0  0  0  0  0  0
    4.7542    2.8333    0.0000 C   0  0  0  0  0  0  0  0  0  0  0  0
    5.3125    3.3375    0.0000 C   0  0  0  0  0  0  0  0  0  0  0  0
    2.2167    2.2958    0.0000 C   0  0  0  0  0  0  0  0  0  0  0  0
    8.8250    4.2917    0.0000 N   0  0  0  0  0  0  0  0  0  0  0  0
    4.0417    3.0708    0.0000 N   0  0  0  0  0  0  0  0  0  0  0  0
    7.5542    4.5667    0.0000 O   0  0  0  0  0  0  0  0  0  0  0  0
    8.5125    2.8333    0.0000 O   0  0  0  0  0  0  0  0  0  0  0  0
    2.7667    2.7958    0.0000 C   0  0  0  0  0  0  0  0  0  0  0  0
    3.4875    2.5625    0.0000 C   0  0  0  0  0  0  0  0  0  0  0  0
    4.9125    2.1000    0.0000 O   0  0  0  0  0  0  0  0  0  0  0  0
    1.0917    1.8958    0.0000 F   0  0  0  0  0  0  0  0  0  0  0  0
    1.7917    3.2208    0.0000 F   0  0  0  0  0  0  0  0  0  0  0  0
    0.8417    2.8833    0.0000 F   0  0  0  0  0  0  0  0  0  0  0  0
    7.3792    1.7458    0.0000 C   0  0  0  0  0  0  0  0  0  0  0  0
    5.8792    1.7458    0.0000 C   0  0  0  0  0  0  0  0  0  0  0  0
    2.3667    1.5583    0.0000 C   0  0  0  0  0  0  0  0  0  0  0  0
    3.0792    1.3333    0.0000 C   0  0  0  0  0  0  0  0  0  0  0  0
    8.9792    5.0292    0.0000 C   0  0  0  0  0  0  0  0  0  0  0  0
    9.3792    3.8000    0.0000 C   0  0  0  0  0  0  0  0  0  0  0  0
    3.6417    1.8333    0.0000 C   0  0  0  0  0  0  0  0  0  0  0  0
    9.6917    5.2625    0.0000 C   0  0  0  0  0  0  0  0  0  0  0  0
   10.0917    4.0250    0.0000 C   0  0  0  0  0  0  0  0  0  0  0  0
    7.0042    1.0958    0.0000 C   0  0  0  0  0  0  0  0  0  0  0  0
    6.2542    1.0958    0.0000 C   0  0  0  0  0  0  0  0  0  0  0  0
  2  3  1  0  0  0  0
  3  1  2  0  0  0  0
  4  1  1  0  0  0  0
  5  1  1  0  0  0  0
  6  4  1  0  0  0  0
  7  5  2  0  0  0  0
  7  2  1  0  0  0  0
  8 11  1  0  0  0  0
  9 10  1  0  0  0  0
 10  2  1  0  0  0  0
 11 16  1  0  0  0  0
 11 24  2  0  0  0  0
 12  6  1  0  0  0  0
 13  9  1  0  0  0  0
 14  6  2  0  0  0  0
 15  4  2  0  0  0  0
 16 17  2  0  0  0  0
 17 13  1  0  0  0  0
 18  9  2  0  0  0  0
 19  8  1  0  0  0  0
 20  8  1  0  0  0  0
 21  8  1  0  0  0  0
 22  5  1  0  0  0  0
 23  7  1  0  0  0  0
 23 32  2  0  0  0  0
 24 25  1  0  0  0  0
 25 28  2  0  0  0  0
 26 12  1  0  0  0  0
 27 12  1  0  0  0  0
 28 17  1  0  0  0  0
 29 26  1  0  0  0  0
 30 27  1  0  0  0  0
 31 22  2  0  0  0  0
 32 31  1  0  0  0  0
M  END
>  <ID>
7960889

>  <Supplier>
ChemBridge

>  <clogP>
3.908000000000000e+000

>  <RB>
5

>  <tPSA>
7.141000000000000e+001

>  <Hacc>
3

>  <Hdon>
1

>  <LogSw>
-5.784000000000000e+000

>  <Group>
1

>  <Core>
503

$$$$
7575215
 OpenBabel03312015312D

 30 33  0  0  0  0  0  0  0  0999 V2000
   -0.9708    1.3708    0.0000 C   0  0  0  0  0  0  0  0  0  0  0  0
   -0.4708    1.2125    0.0000 C   0  0  0  0  0  0  0  0  0  0  0  0
   -0.4708    0.6708    0.0000 C   0  0  0  0  0  0  0  0  0  0  0  0
   -0.9958    0.5125    0.0000 N   0  0  0  0  0  0  0  0  0  0  0  0
   -1.2958    0.9500    0.0000 C   0  0  0  0  0  0  0  0  0  0  0  0
   -0.9333   -1.2292    0.0000 C   0  0  0  0  0  0  0  0  0  0  0  0
   -1.4333   -1.0667    0.0000 C   0  0  0  0  0  0  0  0  0  0  0  0
   -1.7333   -1.4875    0.0000 C   0  0  0  0  0  0  0  0  0  0  0  0
   -0.9333   -1.7667    0.0000 C   0  0  0  0  0  0  0  0  0  0  0  0
   -1.4333   -1.9292    0.0000 S   0  0  0  0  0  0  0  0  0  0  0  0
   -0.4708   -0.9667    0.0000 C   0  0  0  0  0  0  0  0  0  0  0  0
   -1.1500    1.8958    0.0000 C   0  0  0  0  0  0  0  0  0  0  0  0
   -0.0125    0.3958    0.0000 C   0  0  0  0  0  0  0  0  0  0  0  0
   -0.4708   -2.0500    0.0000 N   0  0  0  0  0  0  0  0  0  0  0  0
    0.0042   -1.2292    0.0000 N   0  0  0  0  0  0  0  0  0  0  0  0
   -0.4708   -0.4292    0.0000 S   0  0  0  0  0  0  0  0  0  0  0  0
    0.0042   -1.7875    0.0000 C   0  0  0  0  0  0  0  0  0  0  0  0
   -0.0125   -0.1500    0.0000 C   0  0  0  0  0  0  0  0  0  0  0  0
   -1.6333   -0.5875    0.0000 C   0  0  0  0  0  0  0  0  0  0  0  0
   -0.7958    2.2958    0.0000 O   0  0  0  0  0  0  0  0  0  0  0  0
    0.4667    0.6500    0.0000 O   0  0  0  0  0  0  0  0  0  0  0  0
   -0.0125    1.5333    0.0000 C   0  0  0  0  0  0  0  0  0  0  0  0
   -1.6958    1.9958    0.0000 O   0  0  0  0  0  0  0  0  0  0  0  0
   -1.8333    0.9500    0.0000 C   0  0  0  0  0  0  0  0  0  0  0  0
   -2.1500   -0.5292    0.0000 C   0  0  0  0  0  0  0  0  0  0  0  0
   -1.2958   -0.1667    0.0000 C   0  0  0  0  0  0  0  0  0  0  0  0
   -2.0500    1.5958    0.0000 C   0  0  0  0  0  0  0  0  0  0  0  0
   -2.3500   -0.0292    0.0000 C   0  0  0  0  0  0  0  0  0  0  0  0
   -1.4958    0.3333    0.0000 C   0  0  0  0  0  0  0  0  0  0  0  0
   -2.0333    0.4125    0.0000 C   0  0  0  0  0  0  0  0  0  0  0  0
  2  1  1  0  0  0  0
  3  2  2  0  0  0  0
  4  5  1  0  0  0  0
  4  3  1  0  0  0  0
  5  1  2  0  0  0  0
  6 11  1  0  0  0  0
  7  6  1  0  0  0  0
  8  7  2  0  0  0  0
  8 10  1  0  0  0  0
  9  6  2  0  0  0  0
 10  9  1  0  0  0  0
 11 16  1  0  0  0  0
 12  1  1  0  0  0  0
 13  3  1  0  0  0  0
 14 17  2  0  0  0  0
 14  9  1  0  0  0  0
 15 11  2  0  0  0  0
 16 18  1  0  0  0  0
 17 15  1  0  0  0  0
 18 13  1  0  0  0  0
 19  7  1  0  0  0  0
 20 12  2  0  0  0  0
 21 13  2  0  0  0  0
 22  2  1  0  0  0  0
 23 12  1  0  0  0  0
 24  5  1  0  0  0  0
 25 19  2  0  0  0  0
 26 19  1  0  0  0  0
 27 23  1  0  0  0  0
 28 25  1  0  0  0  0
 29 26  2  0  0  0  0
 30 29  1  0  0  0  0
 30 28  2  0  0  0  0
M  END
>  <ID>
7575215

>  <Supplier>
ChemBridge

>  <clogP>
5.103000000000000e+000

>  <RB>
6

>  <tPSA>
8.494000000000000e+001

>  <Hacc>
5

>  <Hdon>
1

>  <LogSw>
-6.158000000000000e+000

>  <Group>
2

>  <Core>
024

$$$$
6682786
 OpenBabel03312015312D

 22 23  0  0  0  0  0  0  0  0999 V2000
   -0.2208    0.5708    0.0000 S   0  0  0  0  0  0  0  0  0  0  0  0
   -0.6625    0.3333    0.0000 C   0  0  0  0  0  0  0  0  0  0  0  0
   -0.6625   -0.1667    0.0000 C   0  0  0  0  0  0  0  0  0  0  0  0
    0.2167    0.8125    0.0000 N   0  0  0  0  0  0  0  0  0  0  0  0
   -1.0833   -0.4042    0.0000 C   0  0  0  0  0  0  0  0  0  0  0  0
   -1.0833   -0.9042    0.0000 C   0  0  0  0  0  0  0  0  0  0  0  0
   -0.4625    1.0125    0.0000 O   0  0  0  0  0  0  0  0  0  0  0  0
    0.0167    0.1500    0.0000 O   0  0  0  0  0  0  0  0  0  0  0  0
   -1.0833    0.5708    0.0000 C   0  0  0  0  0  0  0  0  0  0  0  0
   -1.5000   -1.1500    0.0000 O   0  0  0  0  0  0  0  0  0  0  0  0
   -1.5000   -0.1667    0.0000 C   0  0  0  0  0  0  0  0  0  0  0  0
   -1.5000    0.3125    0.0000 C   0  0  0  0  0  0  0  0  0  0  0  0
    0.2167    1.3125    0.0000 C   0  0  0  0  0  0  0  0  0  0  0  0
   -0.6625   -1.1500    0.0000 O   0  0  0  0  0  0  0  0  0  0  0  0
    0.2167    2.2708    0.0000 C   0  0  0  0  0  0  0  0  0  0  0  0
    0.2167    2.7708    0.0000 Cl  0  0  0  0  0  0  0  0  0  0  0  0
   -1.0833    1.0500    0.0000 O   0  0  0  0  0  0  0  0  0  0  0  0
   -0.2000    1.5500    0.0000 C   0  0  0  0  0  0  0  0  0  0  0  0
    0.6375    1.5500    0.0000 C   0  0  0  0  0  0  0  0  0  0  0  0
   -0.2000    2.0333    0.0000 C   0  0  0  0  0  0  0  0  0  0  0  0
    0.6375    2.0333    0.0000 C   0  0  0  0  0  0  0  0  0  0  0  0
   -1.5000    1.2958    0.0000 C   0  0  0  0  0  0  0  0  0  0  0  0
  2  1  1  0  0  0  0
  3  2  2  0  0  0  0
  4  1  1  0  0  0  0
  5  3  1  0  0  0  0
  5 11  2  0  0  0  0
  6  5  1  0  0  0  0
  7  1  2  0  0  0  0
  8  1  2  0  0  0  0
  9  2  1  0  0  0  0
 10  6  2  0  0  0  0
 11 12  1  0  0  0  0
 12  9  2  0  0  0  0
 13  4  1  0  0  0  0
 14  6  1  0  0  0  0
 15 21  2  0  0  0  0
 15 20  1  0  0  0  0
 16 15  1  0  0  0  0
 17  9  1  0  0  0  0
 18 13  1  0  0  0  0
 19 13  2  0  0  0  0
 20 18  2  0  0  0  0
 21 19  1  0  0  0  0
 22 17  1  0  0  0  0
M  END
>  <ID>
6682786

>  <Supplier>
ChemBridge

>  <clogP>
3.120000000000000e+000

>  <RB>
3

>  <tPSA>
9.270000000000002e+001

>  <Hacc>
5

>  <Hdon>
2

>  <LogSw>
-4.356999999999998e+000

>  <Group>
1

>  <Core>
272

$$$$
9081957
 OpenBabel03312015312D

 22 24  0  0  0  0  0  0  0  0999 V2000
    3.3292    2.3333    0.0000 N   0  0  0  0  0  0  0  0  0  0  0  0
    2.5917    2.1708    0.0000 C   0  0  0  0  0  0  0  0  0  0  0  0
    3.8875    1.8208    0.0000 C   0  0  0  0  0  0  0  0  0  0  0  0
    2.2167    2.8208    0.0000 C   0  0  0  0  0  0  0  0  0  0  0  0
    5.8667    1.7833    0.0000 C   0  0  0  0  0  0  0  0  0  0  0  0
    6.4292    1.2833    0.0000 C   0  0  0  0  0  0  0  0  0  0  0  0
    3.4042    3.0708    0.0000 C   0  0  0  0  0  0  0  0  0  0  0  0
    6.2750    0.5458    0.0000 C   0  0  0  0  0  0  0  0  0  0  0  0
    6.1167   -0.1875    0.0000 N   0  0  0  0  0  0  0  0  0  0  0  0
    5.1542    1.5500    0.0000 S   0  0  0  0  0  0  0  0  0  0  0  0
    2.2167    1.5208    0.0000 C   0  0  0  0  0  0  0  0  0  0  0  0
    6.0292    2.5208    0.0000 N   0  0  0  0  0  0  0  0  0  0  0  0
    4.6000    2.0583    0.0000 C   0  0  0  0  0  0  0  0  0  0  0  0
    2.7250    3.3750    0.0000 C   0  0  0  0  0  0  0  0  0  0  0  0
    1.4667    2.8208    0.0000 C   0  0  0  0  0  0  0  0  0  0  0  0
    3.7292    1.0875    0.0000 O   0  0  0  0  0  0  0  0  0  0  0  0
    1.0917    2.1708    0.0000 C   0  0  0  0  0  0  0  0  0  0  0  0
    1.4667    1.5208    0.0000 C   0  0  0  0  0  0  0  0  0  0  0  0
    0.3417    2.1708    0.0000 Br  0  0  0  0  0  0  0  0  0  0  0  0
    7.1417    1.5125    0.0000 C   0  0  0  0  0  0  0  0  0  0  0  0
    6.7417    2.7500    0.0000 C   0  0  0  0  0  0  0  0  0  0  0  0
    7.3000    2.2458    0.0000 C   0  0  0  0  0  0  0  0  0  0  0  0
  2  1  1  0  0  0  0
  3  1  1  0  0  0  0
  4  2  2  0  0  0  0
  5 10  1  0  0  0  0
  6  5  1  0  0  0  0
  7  1  1  0  0  0  0
  8  6  1  0  0  0  0
  9  8  3  0  0  0  0
 10 13  1  0  0  0  0
 11  2  1  0  0  0  0
 12  5  2  0  0  0  0
 13  3  1  0  0  0  0
 14  7  1  0  0  0  0
 14  4  1  0  0  0  0
 15  4  1  0  0  0  0
 15 17  2  0  0  0  0
 16  3  2  0  0  0  0
 17 18  1  0  0  0  0
 18 11  2  0  0  0  0
 19 17  1  0  0  0  0
 20  6  2  0  0  0  0
 21 12  1  0  0  0  0
 22 21  2  0  0  0  0
 22 20  1  0  0  0  0
M  END
>  <ID>
9081957

>  <Supplier>
ChemBridge

>  <clogP>
3.300000000000000e+000

>  <RB>
3

>  <tPSA>
5.699000000000000e+001

>  <Hacc>
3

>  <Hdon>
0

>  <LogSw>
-5.012000000000000e+000

>  <Group>
3

>  <Core>
022

$$$$
5311775
 OpenBabel03312015312D

 21 22  0  0  0  0  0  0  0  0999 V2000
   -1.8500    0.5458    0.0000 P   0  0  0  0  0  0  0  0  0  0  0  0
   -1.1708    0.1458    0.0000 C   0  0  3  0  0  0  0  0  0  0  0  0
   -0.4958    0.5208    0.0000 C   0  0  0  0  0  0  0  0  0  0  0  0
   -1.4500    1.2208    0.0000 O   0  0  0  0  0  0  0  0  0  0  0  0
   -2.5500    0.9458    0.0000 C   0  0  0  0  0  0  0  0  0  0  0  0
   -2.2500   -0.1542    0.0000 C   0  0  0  0  0  0  0  0  0  0  0  0
   -0.4708    1.3000    0.0000 O   0  0  0  0  0  0  0  0  0  0  0  0
    0.1875    0.1458    0.0000 O   0  0  0  0  0  0  0  0  0  0  0  0
   -1.1708   -0.6375    0.0000 C   0  0  0  0  0  0  0  0  0  0  0  0
   -1.8708   -0.8375    0.0000 C   0  0  0  0  0  0  0  0  0  0  0  0
   -2.5500    1.7208    0.0000 C   0  0  0  0  0  0  0  0  0  0  0  0
   -3.2125    0.5458    0.0000 C   0  0  0  0  0  0  0  0  0  0  0  0
   -3.0500   -0.1542    0.0000 C   0  0  0  0  0  0  0  0  0  0  0  0
    0.8542    0.5458    0.0000 C   0  0  0  0  0  0  0  0  0  0  0  0
    1.5500    0.1625    0.0000 C   0  0  0  0  0  0  0  0  0  0  0  0
   -2.2500   -1.5167    0.0000 C   0  0  0  0  0  0  0  0  0  0  0  0
   -3.8958    0.9208    0.0000 C   0  0  0  0  0  0  0  0  0  0  0  0
   -3.4333   -0.8375    0.0000 C   0  0  0  0  0  0  0  0  0  0  0  0
   -3.2125    2.1000    0.0000 C   0  0  0  0  0  0  0  0  0  0  0  0
   -3.9125    1.7000    0.0000 C   0  0  0  0  0  0  0  0  0  0  0  0
   -3.0500   -1.5167    0.0000 C   0  0  0  0  0  0  0  0  0  0  0  0
  2  1  1  0  0  0  0
  3  2  1  0  0  0  0
  4  1  2  0  0  0  0
  5  1  1  0  0  0  0
  6  1  1  0  0  0  0
  7  3  2  0  0  0  0
  8  3  1  0  0  0  0
  9  2  1  0  0  0  0
 10  6  1  0  0  0  0
 11  5  2  0  0  0  0
 12  5  1  0  0  0  0
 13  6  2  0  0  0  0
 14  8  1  0  0  0  0
 15 14  1  0  0  0  0
 16 10  2  0  0  0  0
 16 21  1  0  0  0  0
 17 12  2  0  0  0  0
 18 13  1  0  0  0  0
 19 11  1  0  0  0  0
 20 17  1  0  0  0  0
 20 19  2  0  0  0  0
 21 18  2  0  0  0  0
M  END
>  <ID>
5311775

>  <Supplier>
ChemBridge

>  <clogP>
4.540000000000000e+000

>  <RB>
4

>  <tPSA>
4.337000000000000e+001

>  <Hacc>
3

>  <Hdon>
0

>  <LogSw>
-5.282000000000000e+000

>  <Group>
1

$$$$
9081953
 OpenBabel03312015312D

 17 18  0  0  0  0  0  0  0  0999 V2000
    2.9792    1.0125    0.0000 S   0  0  0  0  0  0  0  0  0  0  0  0
    1.8542    1.6625    0.0000 C   0  0  0  0  0  0  0  0  0  0  0  0
    2.6042    1.6625    0.0000 C   0  0  0  0  0  0  0  0  0  0  0  0
    3.7042    1.2083    0.0000 N   0  0  0  0  0  0  0  0  0  0  0  0
    2.3042    0.6958    0.0000 O   0  0  0  0  0  0  0  0  0  0  0  0
    3.2375    0.3083    0.0000 O   0  0  0  0  0  0  0  0  0  0  0  0
    1.4792    2.3125    0.0000 C   0  0  0  0  0  0  0  0  0  0  0  0
    1.4792    1.0125    0.0000 C   0  0  0  0  0  0  0  0  0  0  0  0
    1.8542    0.3625    0.0000 F   0  0  0  0  0  0  0  0  0  0  0  0
    1.8542    2.9625    0.0000 Cl  0  0  0  0  0  0  0  0  0  0  0  0
    4.2875    0.7333    0.0000 C   0  0  0  0  0  0  0  0  0  0  0  0
    3.9750    1.9083    0.0000 C   0  0  0  0  0  0  0  0  0  0  0  0
    0.3542    1.6625    0.0000 C   0  0  0  0  0  0  0  0  0  0  0  0
    0.7292    2.3125    0.0000 C   0  0  0  0  0  0  0  0  0  0  0  0
    0.7292    1.0125    0.0000 C   0  0  0  0  0  0  0  0  0  0  0  0
    4.7250    1.8708    0.0000 C   0  0  0  0  0  0  0  0  0  0  0  0
    4.9167    1.1458    0.0000 C   0  0  0  0  0  0  0  0  0  0  0  0
  2  3  1  0  0  0  0
  3  1  1  0  0  0  0
  4  1  1  0  0  0  0
  5  1  2  0  0  0  0
  6  1  2  0  0  0  0
  7  2  2  0  0  0  0
  8  2  1  0  0  0  0
  9  8  1  0  0  0  0
 10  7  1  0  0  0  0
 11  4  1  0  0  0  0
 12  4  1  0  0  0  0
 13 15  1  0  0  0  0
 14  7  1  0  0  0  0
 14 13  2  0  0  0  0
 15  8  2  0  0  0  0
 16 12  1  0  0  0  0
 17 11  1  0  0  0  0
 17 16  1  0  0  0  0
M  END
>  <ID>
9081953

>  <Supplier>
ChemBridge

>  <clogP>
2.686000000000000e+000

>  <RB>
2

>  <tPSA>
3.738000000000000e+001

>  <Hacc>
3

>  <Hdon>
0

>  <LogSw>
-3.520000000000000e+000

>  <Group>
2

$$$$
5766600
 OpenBabel03312015312D

 21 23  0  0  0  0  0  0  0  0999 V2000
    4.3542   -4.2792    0.0000 N   0  0  0  0  0  0  0  0  0  0  0  0
    4.6167   -5.0542    0.0000 C   0  0  0  0  0  0  0  0  0  0  0  0
    3.2875   -5.0667    0.0000 C   0  0  0  0  0  0  0  0  0  0  0  0
    3.5375   -4.2875    0.0000 C   0  0  0  0  0  0  0  0  0  0  0  0
    3.9542   -5.5542    0.0000 S   0  0  0  0  0  0  0  0  0  0  0  0
    2.5000   -5.3375    0.0000 C   0  0  0  0  0  0  0  0  0  0  0  0
    2.3500   -6.1500    0.0000 C   0  0  0  0  0  0  0  0  0  0  0  0
    1.6875   -7.3042    0.0000 C   0  0  0  0  0  0  0  0  0  0  0  0
    1.6000   -6.4875    0.0000 O   0  0  0  0  0  0  0  0  0  0  0  0
    4.8500   -3.6042    0.0000 C   0  0  0  0  0  0  0  0  0  0  0  0
    5.4042   -5.3042    0.0000 S   0  0  0  0  0  0  0  0  0  0  0  0
    2.5000   -7.4667    0.0000 C   0  0  0  0  0  0  0  0  0  0  0  0
    2.9000   -6.7500    0.0000 C   0  0  0  0  0  0  0  0  0  0  0  0
    3.0500   -3.6167    0.0000 O   0  0  0  0  0  0  0  0  0  0  0  0
    5.6542   -3.7000    0.0000 C   0  0  0  0  0  0  0  0  0  0  0  0
    4.5000   -2.8542    0.0000 C   0  0  0  0  0  0  0  0  0  0  0  0
    1.0792   -7.8542    0.0000 I   0  0  0  0  0  0  0  0  0  0  0  0
    5.8000   -2.2667    0.0000 C   0  0  0  0  0  0  0  0  0  0  0  0
    6.1375   -3.0167    0.0000 C   0  0  0  0  0  0  0  0  0  0  0  0
    4.9667   -2.2000    0.0000 C   0  0  0  0  0  0  0  0  0  0  0  0
    6.2667   -1.6000    0.0000 Cl  0  0  0  0  0  0  0  0  0  0  0  0
  2  1  1  0  0  0  0
  3  4  1  0  0  0  0
  3  5  1  0  0  0  0
  4  1  1  0  0  0  0
  5  2  1  0  0  0  0
  6  3  2  0  0  0  0
  7  6  1  0  0  0  0
  8  9  1  0  0  0  0
  8 12  2  0  0  0  0
  9  7  1  0  0  0  0
 10  1  1  0  0  0  0
 11  2  2  0  0  0  0
 12 13  1  0  0  0  0
 13  7  2  0  0  0  0
 14  4  2  0  0  0  0
 15 10  2  0  0  0  0
 16 10  1  0  0  0  0
 17  8  1  0  0  0  0
 18 20  1  0  0  0  0
 19 15  1  0  0  0  0
 19 18  2  0  0  0  0
 20 16  2  0  0  0  0
 21 18  1  0  0  0  0
M  END
>  <ID>
5766600

>  <Supplier>
ChemBridge

>  <clogP>
5.020000000000000e+000

>  <RB>
2

>  <tPSA>
3.345000000000000e+001

>  <Hacc>
2

>  <Hdon>
0

>  <LogSw>
-6.750000000000000e+000

>  <Group>
1

>  <Core>
001

$$$$
7998049
 OpenBabel03312015312D

 19 20  0  0  0  0  0  0  0  0999 V2000
    6.9167    3.6458    0.0000 S   0  0  0  0  0  0  0  0  0  0  0  0
    6.4750    3.0333    0.0000 C   0  0  0  0  0  0  0  0  0  0  0  0
    7.6292    3.4083    0.0000 C   0  0  0  0  0  0  0  0  0  0  0  0
    4.6000    2.3833    0.0000 C   0  0  0  0  0  0  0  0  0  0  0  0
    6.9167    2.4250    0.0000 C   0  0  0  0  0  0  0  0  0  0  0  0
    7.6292    2.6583    0.0000 C   0  0  0  0  0  0  0  0  0  0  0  0
    4.2250    1.7333    0.0000 N   0  0  0  0  0  0  0  0  0  0  0  0
    2.3500    2.3833    0.0000 C   0  0  0  0  0  0  0  0  0  0  0  0
    3.4750    1.7333    0.0000 C   0  0  0  0  0  0  0  0  0  0  0  0
    3.1000    2.3833    0.0000 C   0  0  0  0  0  0  0  0  0  0  0  0
    1.9750    1.7333    0.0000 C   0  0  0  0  0  0  0  0  0  0  0  0
    4.2250    3.0333    0.0000 O   0  0  0  0  0  0  0  0  0  0  0  0
    2.3500    1.0833    0.0000 C   0  0  0  0  0  0  0  0  0  0  0  0
    5.7250    3.0333    0.0000 C   0  0  0  0  0  0  0  0  0  0  0  0
    5.3500    2.3833    0.0000 C   0  0  0  0  0  0  0  0  0  0  0  0
    3.1000    1.0833    0.0000 C   0  0  0  0  0  0  0  0  0  0  0  0
    8.2375    3.8583    0.0000 C   0  0  0  0  0  0  0  0  0  0  0  0
    1.9750    3.0333    0.0000 C   0  0  0  0  0  0  0  0  0  0  0  0
    1.2250    1.7333    0.0000 C   0  0  0  0  0  0  0  0  0  0  0  0
  2  1  1  0  0  0  0
  3  1  1  0  0  0  0
  4 15  1  0  0  0  0
  5  2  2  0  0  0  0
  5  6  1  0  0  0  0
  6  3  2  0  0  0  0
  7  4  1  0  0  0  0
  8 10  1  0  0  0  0
  8 11  2  0  0  0  0
  9  7  1  0  0  0  0
 10  9  2  0  0  0  0
 11 13  1  0  0  0  0
 12  4  2  0  0  0  0
 13 16  2  0  0  0  0
 14  2  1  0  0  0  0
 15 14  1  0  0  0  0
 16  9  1  0  0  0  0
 17  3  1  0  0  0  0
 18  8  1  0  0  0  0
 19 11  1  0  0  0  0
M  END
>  <ID>
7998049

>  <Supplier>
ChemBridge

>  <clogP>
4.350000000000000e+000

>  <RB>
4

>  <tPSA>
2.910000000000000e+001

>  <Hacc>
1

>  <Hdon>
1

>  <LogSw>
-4.909000000000002e+000

>  <Group>
3

$$$$
9022545
 OpenBabel03312015312D

 19 20  0  0  0  0  0  0  0  0999 V2000
    4.3000    2.3208    0.0000 C   0  0  0  0  0  0  0  0  0  0  0  0
    3.9250    1.6708    0.0000 N   0  0  0  0  0  0  0  0  0  0  0  0
    5.0500    2.3208    0.0000 C   0  0  0  0  0  0  0  0  0  0  0  0
    3.1750    1.6708    0.0000 C   0  0  0  0  0  0  0  0  0  0  0  0
    1.6750    2.9708    0.0000 C   0  0  0  0  0  0  0  0  0  0  0  0
    2.0500    2.3208    0.0000 C   0  0  0  0  0  0  0  0  0  0  0  0
    2.8000    2.3208    0.0000 C   0  0  0  0  0  0  0  0  0  0  0  0
    5.4917    1.7125    0.0000 S   0  0  0  0  0  0  0  0  0  0  0  0
    2.8000    1.0208    0.0000 C   0  0  0  0  0  0  0  0  0  0  0  0
    5.4917    2.9250    0.0000 C   0  0  0  0  0  0  0  0  0  0  0  0
    3.9250    2.9708    0.0000 O   0  0  0  0  0  0  0  0  0  0  0  0
    6.2042    1.9458    0.0000 C   0  0  0  0  0  0  0  0  0  0  0  0
    2.0500    3.6208    0.0000 O   0  0  0  0  0  0  0  0  0  0  0  0
    1.6750    1.6708    0.0000 C   0  0  0  0  0  0  0  0  0  0  0  0
    6.2042    2.6958    0.0000 C   0  0  0  0  0  0  0  0  0  0  0  0
    2.0500    1.0208    0.0000 C   0  0  0  0  0  0  0  0  0  0  0  0
    0.9250    2.9708    0.0000 O   0  0  0  0  0  0  0  0  0  0  0  0
    3.1750    0.3708    0.0000 Cl  0  0  0  0  0  0  0  0  0  0  0  0
    0.5500    3.6208    0.0000 C   0  0  0  0  0  0  0  0  0  0  0  0
  2  1  1  0  0  0  0
  3  1  1  0  0  0  0
  4  2  1  0  0  0  0
  5  6  1  0  0  0  0
  6  7  2  0  0  0  0
  6 14  1  0  0  0  0
  7  4  1  0  0  0  0
  8  3  1  0  0  0  0
  9  4  2  0  0  0  0
 10  3  2  0  0  0  0
 11  1  2  0  0  0  0
 12  8  1  0  0  0  0
 13  5  2  0  0  0  0
 14 16  2  0  0  0  0
 15 10  1  0  0  0  0
 15 12  2  0  0  0  0
 16  9  1  0  0  0  0
 17  5  1  0  0  0  0
 18  9  1  0  0  0  0
 19 17  1  0  0  0  0
M  END
>  <ID>
9022545

>  <Supplier>
ChemBridge

>  <clogP>
2.753000000000000e+000

>  <RB>
3

>  <tPSA>
5.540000000000000e+001

>  <Hacc>
3

>  <Hdon>
1

>  <LogSw>
-3.708000000000000e+000

>  <Group>
2

>  <Core>
148

$$$$
9022543
 OpenBabel03312015312D

 20 22  0  0  0  0  0  0  0  0999 V2000
    2.3542    2.0875    0.0000 C   0  0  0  0  0  0  0  0  0  0  0  0
    1.9792    1.4375    0.0000 C   0  0  0  0  0  0  0  0  0  0  0  0
    3.1667    1.1833    0.0000 C   0  0  0  0  0  0  0  0  0  0  0  0
    3.0917    1.9333    0.0000 N   0  0  0  0  0  0  0  0  0  0  0  0
    2.4792    0.8833    0.0000 N   0  0  0  0  0  0  0  0  0  0  0  0
    1.2292    1.4375    0.0000 N   0  0  0  0  0  0  0  0  0  0  0  0
    1.2292    2.7375    0.0000 N   0  0  0  0  0  0  0  0  0  0  0  0
    0.8542    2.0875    0.0000 C   0  0  0  0  0  0  0  0  0  0  0  0
    1.9792    2.7375    0.0000 C   0  0  0  0  0  0  0  0  0  0  0  0
    3.9042    1.0333    0.0000 N   0  0  0  0  0  0  0  0  0  0  0  0
    3.7750    2.2375    0.0000 C   0  0  0  0  0  0  0  0  0  0  0  0
    4.2792    1.6833    0.0000 C   0  0  0  0  0  0  0  0  0  0  0  0
    0.1042    2.0875    0.0000 O   0  0  0  0  0  0  0  0  0  0  0  0
    2.3542    3.3958    0.0000 O   0  0  0  0  0  0  0  0  0  0  0  0
    0.8542    0.7875    0.0000 C   0  0  0  0  0  0  0  0  0  0  0  0
    0.8542    3.3958    0.0000 C   0  0  0  0  0  0  0  0  0  0  0  0
    4.2042    0.3458    0.0000 C   0  0  0  0  0  0  0  0  0  0  0  0
    3.9292    2.9708    0.0000 C   0  0  0  0  0  0  0  0  0  0  0  0
    5.0250    1.7583    0.0000 C   0  0  0  0  0  0  0  0  0  0  0  0
    4.9542    0.2708    0.0000 C   0  0  0  0  0  0  0  0  0  0  0  0
  2  1  2  0  0  0  0
  3  4  1  0  0  0  0
  4  1  1  0  0  0  0
  5  2  1  0  0  0  0
  5  3  2  0  0  0  0
  6  2  1  0  0  0  0
  6  8  1  0  0  0  0
  7  9  1  0  0  0  0
  8  7  1  0  0  0  0
  9  1  1  0  0  0  0
 10  3  1  0  0  0  0
 11  4  1  0  0  0  0
 12 11  2  0  0  0  0
 12 10  1  0  0  0  0
 13  8  2  0  0  0  0
 14  9  2  0  0  0  0
 15  6  1  0  0  0  0
 16  7  1  0  0  0  0
 17 10  1  0  0  0  0
 18 11  1  0  0  0  0
 19 12  1  0  0  0  0
 20 17  1  0  0  0  0
M  END
>  <ID>
9022543

>  <Supplier>
ChemBridge

>  <clogP>
1.374000000000000e+000

>  <RB>
0

>  <tPSA>
6.622999999999995e+001

>  <Hacc>
3

>  <Hdon>
0

>  <LogSw>
-2.374000000000000e+000

>  <Group>
2

>  <Core>
131

$$$$
9022542
 OpenBabel03312015312D

 21 22  0  0  0  0  0  0  0  0999 V2000
    1.2000    1.3583    0.0000 C   0  0  0  0  0  0  0  0  0  0  0  0
    1.8500    0.9833    0.0000 N   0  0  0  0  0  0  0  0  0  0  0  0
    2.5000    1.3583    0.0000 C   0  0  0  0  0  0  0  0  0  0  0  0
    3.1417    0.9833    0.0000 N   0  0  0  0  0  0  0  0  0  0  0  0
    0.5500    0.9833    0.0000 C   0  0  0  0  0  0  0  0  0  0  0  0
   -2.0500    0.9833    0.0000 C   0  0  0  0  0  0  0  0  0  0  0  0
   -1.4000    1.3583    0.0000 N   0  0  0  0  0  0  0  0  0  0  0  0
    1.2000    2.1083    0.0000 O   0  0  0  0  0  0  0  0  0  0  0  0
   -0.1000    1.3583    0.0000 C   0  0  0  0  0  0  0  0  0  0  0  0
   -0.7500    0.9833    0.0000 C   0  0  0  0  0  0  0  0  0  0  0  0
   -2.0500    0.2333    0.0000 O   0  0  0  0  0  0  0  0  0  0  0  0
    3.7917    1.3583    0.0000 C   0  0  0  0  0  0  0  0  0  0  0  0
    3.7917    2.1083    0.0000 C   0  0  0  0  0  0  0  0  0  0  0  0
    2.5000    2.1083    0.0000 C   0  0  0  0  0  0  0  0  0  0  0  0
    4.4417    2.4833    0.0000 Cl  0  0  0  0  0  0  0  0  0  0  0  0
    3.1417    2.4833    0.0000 C   0  0  0  0  0  0  0  0  0  0  0  0
    0.5500    0.2333    0.0000 C   0  0  0  0  0  0  0  0  0  0  0  0
   -0.1000   -0.1417    0.0000 C   0  0  0  0  0  0  0  0  0  0  0  0
   -2.7000    1.3583    0.0000 C   0  0  0  0  0  0  0  0  0  0  0  0
   -0.7500    0.2333    0.0000 C   0  0  0  0  0  0  0  0  0  0  0  0
   -3.3458    0.9833    0.0000 C   0  0  0  0  0  0  0  0  0  0  0  0
  2  1  1  0  0  0  0
  3  2  1  0  0  0  0
  4  3  1  0  0  0  0
  5  1  1  0  0  0  0
  6  7  1  0  0  0  0
  7 10  1  0  0  0  0
  8  1  2  0  0  0  0
  9  5  2  0  0  0  0
 10  9  1  0  0  0  0
 10 20  2  0  0  0  0
 11  6  2  0  0  0  0
 12  4  2  0  0  0  0
 12 13  1  0  0  0  0
 13 16  2  0  0  0  0
 14  3  2  0  0  0  0
 15 13  1  0  0  0  0
 16 14  1  0  0  0  0
 17  5  1  0  0  0  0
 18 17  2  0  0  0  0
 19  6  1  0  0  0  0
 20 18  1  0  0  0  0
 21 19  1  0  0  0  0
M  END
>  <ID>
9022542

>  <Supplier>
ChemBridge

>  <clogP>
2.652000000000000e+000

>  <RB>
3

>  <tPSA>
7.109000000000000e+001

>  <Hacc>
3

>  <Hdon>
2

>  <LogSw>
-3.680000000000000e+000

>  <Group>
2

>  <Core>
146

$$$$
5311779
 OpenBabel03312015312D

 15 15  0  0  0  0  0  0  0  0999 V2000
   -4.0000   -0.1292    0.0000 N   0  3  0  0  0  0  0  0  0  0  0  0
   -3.1833   -0.1292    0.0000 C   0  0  3  0  0  0  0  0  0  0  0  0
   -1.9333    0.5958    0.0000 N   0  0  0  0  0  0  0  0  0  0  0  0
   -2.7708    0.5958    0.0000 C   0  0  0  0  0  0  0  0  0  0  0  0
   -0.6958    1.3000    0.0000 N   0  0  0  0  0  0  0  0  0  0  0  0
   -1.5208    1.3000    0.0000 C   0  0  0  0  0  0  0  0  0  0  0  0
   -4.4833    0.5500    0.0000 O   0  5  0  0  0  0  0  0  0  0  0  0
   -4.4583   -0.8042    0.0000 O   0  0  0  0  0  0  0  0  0  0  0  0
   -2.7708   -0.8500    0.0000 C   0  0  0  0  0  0  0  0  0  0  0  0
   -3.1833   -1.5667    0.0000 O   0  0  0  0  0  0  0  0  0  0  0  0
   -0.2833    2.0208    0.0000 C   0  0  0  0  0  0  0  0  0  0  0  0
   -0.7000    2.7458    0.0000 C   0  0  0  0  0  0  0  0  0  0  0  0
   -1.9333    2.0208    0.0000 C   0  0  0  0  0  0  0  0  0  0  0  0
   -0.3000    3.4625    0.0000 Cl  0  0  0  0  0  0  0  0  0  0  0  0
   -1.5333    2.7458    0.0000 C   0  0  0  0  0  0  0  0  0  0  0  0
  2  1  1  0  0  0  0
  3  4  2  0  0  0  0
  4  2  1  0  0  0  0
  5  6  2  0  0  0  0
  6  3  1  0  0  0  0
  7  1  1  0  0  0  0
  8  1  2  0  0  0  0
  9  2  1  0  0  0  0
 10  9  2  0  0  0  0
 11  5  1  0  0  0  0
 12 15  1  0  0  0  0
 12 11  2  0  0  0  0
 13  6  1  0  0  0  0
 14 12  1  0  0  0  0
 15 13  2  0  0  0  0
M  CHG  2   1   1   7  -1
M  END
>  <ID>
5311779

>  <Supplier>
ChemBridge

>  <clogP>
-4.300000000000000e-001

>  <RB>
3

>  <tPSA>
8.546000000000001e+001

>  <Hacc>
5

>  <Hdon>
0

>  <LogSw>
-8.840000000000000e-001

>  <Group>
1

>  <Core>
464

$$$$
5311778
 OpenBabel03312015312D

 29 32  0  0  0  0  0  0  0  0999 V2000
    0.6792    1.3333    0.0000 N   0  0  0  0  0  0  0  0  0  0  0  0
    0.1375    1.5708    0.0000 C   0  0  0  0  0  0  0  0  0  0  0  0
   -1.6625   -0.2875    0.0000 C   0  0  0  0  0  0  0  0  0  0  0  0
   -1.9833   -0.8042    0.0000 N   0  3  0  0  0  0  0  0  0  0  0  0
   -0.4000    1.2708    0.0000 C   0  0  0  0  0  0  0  0  0  0  0  0
    1.0792    1.7708    0.0000 C   0  0  0  0  0  0  0  0  0  0  0  0
    0.2000    2.1708    0.0000 S   0  0  0  0  0  0  0  0  0  0  0  0
   -1.0625   -0.2292    0.0000 O   0  0  0  0  0  0  0  0  0  0  0  0
   -0.4208    0.6708    0.0000 C   0  0  0  0  0  0  0  0  0  0  0  0
   -0.9458    0.3708    0.0000 C   0  0  0  0  0  0  0  0  0  0  0  0
    0.7792    2.2958    0.0000 C   0  0  0  0  0  0  0  0  0  0  0  0
   -1.9083    0.2708    0.0000 C   0  0  0  0  0  0  0  0  0  0  0  0
   -0.9208    1.5708    0.0000 C   0  0  0  0  0  0  0  0  0  0  0  0
   -1.4625    1.8958    0.0000 N   0  0  0  0  0  0  0  0  0  0  0  0
   -1.4625    0.6708    0.0000 C   0  0  0  0  0  0  0  0  0  0  0  0
   -2.5833   -0.7875    0.0000 O   0  5  0  0  0  0  0  0  0  0  0  0
    1.6792    1.7708    0.0000 C   0  0  0  0  0  0  0  0  0  0  0  0
   -1.7000   -1.3500    0.0000 O   0  0  0  0  0  0  0  0  0  0  0  0
    2.8792    1.7708    0.0000 C   0  0  0  0  0  0  0  0  0  0  0  0
    1.9792    1.2500    0.0000 C   0  0  0  0  0  0  0  0  0  0  0  0
    1.9792    2.2958    0.0000 C   0  0  0  0  0  0  0  0  0  0  0  0
    2.5792    1.2500    0.0000 C   0  0  0  0  0  0  0  0  0  0  0  0
    2.5792    2.2958    0.0000 C   0  0  0  0  0  0  0  0  0  0  0  0
    3.4792    1.7708    0.0000 C   0  0  0  0  0  0  0  0  0  0  0  0
    3.7875    2.2958    0.0000 C   0  0  0  0  0  0  0  0  0  0  0  0
    3.7875    1.2500    0.0000 C   0  0  0  0  0  0  0  0  0  0  0  0
    4.3875    1.2500    0.0000 C   0  0  0  0  0  0  0  0  0  0  0  0
    4.3875    2.2958    0.0000 C   0  0  0  0  0  0  0  0  0  0  0  0
    4.7000    1.7708    0.0000 C   0  0  0  0  0  0  0  0  0  0  0  0
  2  1  2  0  0  0  0
  3  8  1  0  0  0  0
  4  3  1  0  0  0  0
  5  2  1  0  0  0  0
  6  1  1  0  0  0  0
  7  2  1  0  0  0  0
  8 10  1  0  0  0  0
  9  5  2  0  0  0  0
 10  9  1  0  0  0  0
 11  6  2  0  0  0  0
 11  7  1  0  0  0  0
 12 15  1  0  0  0  0
 12  3  2  0  0  0  0
 13  5  1  0  0  0  0
 14 13  3  0  0  0  0
 15 10  2  0  0  0  0
 16  4  1  0  0  0  0
 17  6  1  0  0  0  0
 18  4  2  0  0  0  0
 19 23  2  0  0  0  0
 19 22  1  0  0  0  0
 20 17  1  0  0  0  0
 21 17  2  0  0  0  0
 22 20  2  0  0  0  0
 23 21  1  0  0  0  0
 24 19  1  0  0  0  0
 25 24  2  0  0  0  0
 26 24  1  0  0  0  0
 27 26  2  0  0  0  0
 28 25  1  0  0  0  0
 29 27  1  0  0  0  0
 29 28  2  0  0  0  0
M  CHG  2   4   1  16  -1
M  END
>  <ID>
5311778

>  <Supplier>
ChemBridge

>  <clogP>
4.700000000000000e+000

>  <RB>
4

>  <tPSA>
9.296000000000001e+001

>  <Hacc>
5

>  <Hdon>
0

>  <LogSw>
-6.781000000000002e+000

>  <Group>
2

>  <Core>
111

$$$$
6095955
 OpenBabel03312015312D

 22 23  0  0  0  0  0  0  0  0999 V2000
   -1.0958    0.8000    0.0000 C   0  0  0  0  0  0  0  0  0  0  0  0
   -1.5458    0.0000    0.0000 C   0  0  0  0  0  0  0  0  0  0  0  0
   -0.1708    0.8125    0.0000 C   0  0  0  0  0  0  0  0  0  0  0  0
    2.6042    0.8833    0.0000 C   0  0  0  0  0  0  0  0  0  0  0  0
    1.7000    0.8333    0.0000 C   0  0  0  0  0  0  0  0  0  0  0  0
    0.2792    1.6125    0.0000 N   0  0  0  0  0  0  0  0  0  0  0  0
   -2.4708    0.0000    0.0000 C   0  0  0  0  0  0  0  0  0  0  0  0
    1.2000    1.6208    0.0000 C   0  0  0  0  0  0  0  0  0  0  0  0
    3.0292    1.7000    0.0000 C   0  0  0  0  0  0  0  0  0  0  0  0
   -1.0708   -0.8000    0.0000 O   0  0  0  0  0  0  0  0  0  0  0  0
    2.5500    2.4708    0.0000 C   0  0  0  0  0  0  0  0  0  0  0  0
   -2.9458    0.8125    0.0000 C   0  0  0  0  0  0  0  0  0  0  0  0
   -2.9500   -0.8042    0.0000 C   0  0  0  0  0  0  0  0  0  0  0  0
    3.1000    0.1125    0.0000 Cl  0  0  0  0  0  0  0  0  0  0  0  0
    1.6042    2.4208    0.0000 C   0  0  0  0  0  0  0  0  0  0  0  0
    3.9500    1.7500    0.0000 Br  0  0  0  0  0  0  0  0  0  0  0  0
   -4.3500    0.0000    0.0000 C   0  0  0  0  0  0  0  0  0  0  0  0
   -3.8708    0.8125    0.0000 C   0  0  0  0  0  0  0  0  0  0  0  0
   -3.8833   -0.8042    0.0000 C   0  0  0  0  0  0  0  0  0  0  0  0
   -5.2708    0.0000    0.0000 O   0  0  0  0  0  0  0  0  0  0  0  0
    0.3000    0.0208    0.0000 C   0  0  0  0  0  0  0  0  0  0  0  0
   -5.7208    0.7833    0.0000 C   0  0  0  0  0  0  0  0  0  0  0  0
  2  1  1  0  0  0  0
  3  1  2  0  0  0  0
  4  5  1  0  0  0  0
  5  8  2  0  0  0  0
  6  3  1  0  0  0  0
  7  2  1  0  0  0  0
  8  6  1  0  0  0  0
  9 11  1  0  0  0  0
  9  4  2  0  0  0  0
 10  2  2  0  0  0  0
 11 15  2  0  0  0  0
 12  7  1  0  0  0  0
 13  7  2  0  0  0  0
 14  4  1  0  0  0  0
 15  8  1  0  0  0  0
 16  9  1  0  0  0  0
 17 19  2  0  0  0  0
 18 12  2  0  0  0  0
 18 17  1  0  0  0  0
 19 13  1  0  0  0  0
 20 17  1  0  0  0  0
 21  3  1  0  0  0  0
 22 20  1  0  0  0  0
M  END
>  <ID>
6095955

>  <Supplier>
ChemBridge

>  <clogP>
5.870000000000000e+000

>  <RB>
4

>  <tPSA>
3.833000000000000e+001

>  <Hacc>
2

>  <Hdon>
1

>  <LogSw>
-6.988000000000000e+000

>  <Group>
1

>  <Core>
208

$$$$
7995441
 OpenBabel03312015312D

 16 17  0  0  0  0  0  0  0  0999 V2000
    3.0667    1.8250    0.0000 N   0  0  0  0  0  0  0  0  0  0  0  0
    3.4417    1.1750    0.0000 C   0  0  0  0  0  0  0  0  0  0  0  0
    4.1917    1.1750    0.0000 C   0  0  0  0  0  0  0  0  0  0  0  0
    3.4417    2.4750    0.0000 N   0  0  0  0  0  0  0  0  0  0  0  0
    4.5667    1.8250    0.0000 C   0  0  0  0  0  0  0  0  0  0  0  0
    4.1917    2.4750    0.0000 C   0  0  0  0  0  0  0  0  0  0  0  0
    2.3167    1.8250    0.0000 C   0  0  0  0  0  0  0  0  0  0  0  0
    3.0667    0.5250    0.0000 O   0  0  0  0  0  0  0  0  0  0  0  0
    4.5667    0.5250    0.0000 Cl  0  0  0  0  0  0  0  0  0  0  0  0
    1.9417    2.4750    0.0000 C   0  0  0  0  0  0  0  0  0  0  0  0
    5.3167    1.8250    0.0000 Cl  0  0  0  0  0  0  0  0  0  0  0  0
    1.9417    1.1750    0.0000 C   0  0  0  0  0  0  0  0  0  0  0  0
    2.3167    3.1250    0.0000 C   0  0  0  0  0  0  0  0  0  0  0  0
    1.1917    2.4750    0.0000 C   0  0  0  0  0  0  0  0  0  0  0  0
    1.1917    1.1750    0.0000 C   0  0  0  0  0  0  0  0  0  0  0  0
    0.8167    1.8250    0.0000 C   0  0  0  0  0  0  0  0  0  0  0  0
  2  1  1  0  0  0  0
  3  2  1  0  0  0  0
  3  5  2  0  0  0  0
  4  1  1  0  0  0  0
  5  6  1  0  0  0  0
  6  4  2  0  0  0  0
  7  1  1  0  0  0  0
  8  2  2  0  0  0  0
  9  3  1  0  0  0  0
 10  7  2  0  0  0  0
 11  5  1  0  0  0  0
 12  7  1  0  0  0  0
 13 10  1  0  0  0  0
 14 10  1  0  0  0  0
 14 16  2  0  0  0  0
 15 12  2  0  0  0  0
 16 15  1  0  0  0  0
M  END
>  <ID>
7995441

>  <Supplier>
ChemBridge

>  <clogP>
2.550000000000000e+000

>  <RB>
1

>  <tPSA>
3.489000000000000e+001

>  <Hacc>
2

>  <Hdon>
0

>  <LogSw>
-3.239000000000000e+000

>  <Group>
2

>  <Core>
179

$$$$
7386195
 OpenBabel03312015312D

 31 34  0  0  0  0  0  0  0  0999 V2000
    2.6667   -3.3042    0.0000 C   0  0  0  0  0  0  0  0  0  0  0  0
    1.2625   -3.1625    0.0000 N   0  0  0  0  0  0  0  0  0  0  0  0
    1.1792   -3.9750    0.0000 C   0  0  0  0  0  0  0  0  0  0  0  0
    2.0042   -2.8167    0.0000 C   0  0  0  0  0  0  0  0  0  0  0  0
    1.8417   -4.4417    0.0000 N   0  0  0  0  0  0  0  0  0  0  0  0
    2.5875   -4.1167    0.0000 C   0  0  0  0  0  0  0  0  0  0  0  0
    4.0917   -3.4542    0.0000 C   0  0  0  0  0  0  0  0  0  0  0  0
    5.3917   -3.8625    0.0000 N   0  0  0  0  0  0  0  0  0  0  0  0
    3.4125   -2.9667    0.0000 C   0  0  0  0  0  0  0  0  0  0  0  0
    4.8917   -4.5417    0.0000 C   0  0  0  0  0  0  0  0  0  0  0  0
    4.8875   -3.1875    0.0000 C   0  0  0  0  0  0  0  0  0  0  0  0
    4.1042   -4.2917    0.0000 C   0  0  0  0  0  0  0  0  0  0  0  0
    8.7292   -3.8292    0.0000 N   0  0  0  0  0  0  0  0  0  0  0  0
    0.4375   -4.3125    0.0000 S   0  0  0  0  0  0  0  0  0  0  0  0
    6.2292   -3.8542    0.0000 C   0  0  0  0  0  0  0  0  0  0  0  0
    2.0917   -2.0042    0.0000 O   0  0  0  0  0  0  0  0  0  0  0  0
    7.9000   -3.8417    0.0000 C   0  0  0  0  0  0  0  0  0  0  0  0
    3.2417   -4.5917    0.0000 O   0  0  0  0  0  0  0  0  0  0  0  0
    6.6292   -3.1250    0.0000 C   0  0  0  0  0  0  0  0  0  0  0  0
    6.6500   -4.5792    0.0000 C   0  0  0  0  0  0  0  0  0  0  0  0
    7.4875   -4.5667    0.0000 C   0  0  0  0  0  0  0  0  0  0  0  0
    7.4667   -3.1167    0.0000 C   0  0  0  0  0  0  0  0  0  0  0  0
    0.5917   -2.6875    0.0000 C   0  0  0  0  0  0  0  0  0  0  0  0
   10.3792   -3.8167    0.0000 O   0  0  0  0  0  0  0  0  0  0  0  0
    5.1667   -5.3375    0.0000 C   0  0  0  0  0  0  0  0  0  0  0  0
    5.1417   -2.3875    0.0000 C   0  0  0  0  0  0  0  0  0  0  0  0
    9.1417   -4.5500    0.0000 C   0  0  0  0  0  0  0  0  0  0  0  0
    9.1292   -3.1042    0.0000 C   0  0  0  0  0  0  0  0  0  0  0  0
    9.9625   -3.1042    0.0000 C   0  0  0  0  0  0  0  0  0  0  0  0
    9.9667   -4.5417    0.0000 C   0  0  0  0  0  0  0  0  0  0  0  0
   -0.1583   -3.0292    0.0000 C   0  0  0  0  0  0  0  0  0  0  0  0
  2  4  1  0  0  0  0
  3  5  1  0  0  0  0
  3  2  1  0  0  0  0
  4  1  1  0  0  0  0
  5  6  1  0  0  0  0
  6  1  1  0  0  0  0
  7  9  1  0  0  0  0
  8 11  1  0  0  0  0
  8 10  1  0  0  0  0
  9  1  2  0  0  0  0
 10 12  2  0  0  0  0
 11  7  2  0  0  0  0
 12  7  1  0  0  0  0
 13 17  1  0  0  0  0
 14  3  2  0  0  0  0
 15  8  1  0  0  0  0
 16  4  2  0  0  0  0
 17 21  2  0  0  0  0
 17 22  1  0  0  0  0
 18  6  2  0  0  0  0
 19 15  1  0  0  0  0
 20 15  2  0  0  0  0
 21 20  1  0  0  0  0
 22 19  2  0  0  0  0
 23  2  1  0  0  0  0
 24 29  1  0  0  0  0
 24 30  1  0  0  0  0
 25 10  1  0  0  0  0
 26 11  1  0  0  0  0
 27 13  1  0  0  0  0
 28 13  1  0  0  0  0
 29 28  1  0  0  0  0
 30 27  1  0  0  0  0
 31 23  1  0  0  0  0
M  END
>  <ID>
7386195

>  <Supplier>
ChemBridge

>  <clogP>
3.889000000000000e+000

>  <RB>
3

>  <tPSA>
6.681000000000000e+001

>  <Hacc>
4

>  <Hdon>
1

>  <LogSw>
-5.726000000000000e+000

>  <Group>
2

>  <Core>
007

$$$$
7213955
 OpenBabel03312015312D

 23 24  0  0  0  0  0  0  0  0999 V2000
    8.7792   -1.4917    0.0000 N   0  3  0  0  0  0  0  0  0  0  0  0
    6.6167   -6.8417    0.0000 C   0  0  0  0  0  0  0  0  0  0  0  0
    6.6167   -7.6750    0.0000 C   0  0  0  0  0  0  0  0  0  0  0  0
    7.3375   -6.4375    0.0000 N   0  0  0  0  0  0  0  0  0  0  0  0
    5.9125   -6.4375    0.0000 C   0  0  0  0  0  0  0  0  0  0  0  0
    8.7792   -2.3167    0.0000 C   0  0  0  0  0  0  0  0  0  0  0  0
    8.0500   -6.0167    0.0000 C   0  0  0  0  0  0  0  0  0  0  0  0
    9.5042   -1.0792    0.0000 O   0  5  0  0  0  0  0  0  0  0  0  0
    8.0667   -1.0750    0.0000 O   0  0  0  0  0  0  0  0  0  0  0  0
    5.9042   -8.0792    0.0000 C   0  0  0  0  0  0  0  0  0  0  0  0
    5.2000   -6.8417    0.0000 C   0  0  0  0  0  0  0  0  0  0  0  0
    5.1917   -7.6667    0.0000 C   0  0  0  0  0  0  0  0  0  0  0  0
    8.7542   -6.4292    0.0000 O   0  0  0  0  0  0  0  0  0  0  0  0
    8.0625   -2.7250    0.0000 C   0  0  0  0  0  0  0  0  0  0  0  0
    9.4917   -2.7375    0.0000 C   0  0  0  0  0  0  0  0  0  0  0  0
    7.3292   -8.0875    0.0000 Cl  0  0  0  0  0  0  0  0  0  0  0  0
    8.7625   -4.7917    0.0000 O   0  0  0  0  0  0  0  0  0  0  0  0
    8.0417   -5.2000    0.0000 C   0  0  0  0  0  0  0  0  0  0  0  0
    8.7667   -3.9667    0.0000 C   0  0  0  0  0  0  0  0  0  0  0  0
    9.4875   -3.5625    0.0000 C   0  0  0  0  0  0  0  0  0  0  0  0
    8.0542   -3.5542    0.0000 C   0  0  0  0  0  0  0  0  0  0  0  0
    5.9125   -5.6125    0.0000 C   0  0  0  0  0  0  0  0  0  0  0  0
    4.4792   -8.0750    0.0000 C   0  0  0  0  0  0  0  0  0  0  0  0
  2  4  1  0  0  0  0
  3  2  1  0  0  0  0
  4  7  1  0  0  0  0
  5  2  2  0  0  0  0
  6  1  1  0  0  0  0
  7 18  1  0  0  0  0
  8  1  1  0  0  0  0
  9  1  2  0  0  0  0
 10  3  2  0  0  0  0
 10 12  1  0  0  0  0
 11  5  1  0  0  0  0
 12 11  2  0  0  0  0
 13  7  2  0  0  0  0
 14  6  2  0  0  0  0
 15  6  1  0  0  0  0
 16  3  1  0  0  0  0
 17 19  1  0  0  0  0
 18 17  1  0  0  0  0
 19 20  1  0  0  0  0
 19 21  2  0  0  0  0
 20 15  2  0  0  0  0
 21 14  1  0  0  0  0
 22  5  1  0  0  0  0
 23 12  1  0  0  0  0
M  CHG  2   1   1   8  -1
M  END
>  <ID>
7213955

>  <Supplier>
ChemBridge

>  <clogP>
3.180000000000000e+000

>  <RB>
4

>  <tPSA>
8.147000000000000e+001

>  <Hacc>
4

>  <Hdon>
1

>  <LogSw>
-4.747000000000000e+000

>  <Group>
1

>  <Core>
315

$$$$
7585003
 OpenBabel03312015312D

 31 33  0  0  0  0  0  0  0  0999 V2000
    2.8917   -0.5875    0.0000 S   0  0  0  0  0  0  0  0  0  0  0  0
    6.5917   -1.8542    0.0000 S   0  0  0  0  0  0  0  0  0  0  0  0
    2.1417   -0.1542    0.0000 C   0  0  0  0  0  0  0  0  0  0  0  0
    2.1500    0.7083    0.0000 C   0  0  0  0  0  0  0  0  0  0  0  0
    1.4042    1.1333    0.0000 C   0  0  0  0  0  0  0  0  0  0  0  0
    3.6292   -0.1542    0.0000 N   0  0  0  0  0  0  0  0  0  0  0  0
    7.3250   -1.4167    0.0000 N   0  0  0  0  0  0  0  0  0  0  0  0
    5.8500   -1.4292    0.0000 C   0  0  0  0  0  0  0  0  0  0  0  0
    1.4042   -0.5792    0.0000 C   0  0  0  0  0  0  0  0  0  0  0  0
    3.3000   -1.3000    0.0000 O   0  0  0  0  0  0  0  0  0  0  0  0
    2.4750   -1.3000    0.0000 O   0  0  0  0  0  0  0  0  0  0  0  0
    7.0125   -2.5917    0.0000 O   0  0  0  0  0  0  0  0  0  0  0  0
    6.1542   -2.5917    0.0000 O   0  0  0  0  0  0  0  0  0  0  0  0
    0.6625    0.7083    0.0000 C   0  0  0  0  0  0  0  0  0  0  0  0
    0.6667   -0.1542    0.0000 C   0  0  0  0  0  0  0  0  0  0  0  0
    2.8625    1.1208    0.0000 Cl  0  0  0  0  0  0  0  0  0  0  0  0
    1.4042    1.9583    0.0000 Cl  0  0  0  0  0  0  0  0  0  0  0  0
    4.3667   -0.5792    0.0000 C   0  0  0  0  0  0  0  0  0  0  0  0
    5.1042   -1.8625    0.0000 C   0  0  0  0  0  0  0  0  0  0  0  0
    5.8417   -0.5750    0.0000 C   0  0  0  0  0  0  0  0  0  0  0  0
    8.0667   -1.8417    0.0000 C   0  0  0  0  0  0  0  0  0  0  0  0
    9.5417   -2.7000    0.0000 C   0  0  0  0  0  0  0  0  0  0  0  0
    4.3667   -1.4375    0.0000 C   0  0  0  0  0  0  0  0  0  0  0  0
    5.1042   -0.1542    0.0000 C   0  0  0  0  0  0  0  0  0  0  0  0
   10.2792   -3.1250    0.0000 F   0  0  0  0  0  0  0  0  0  0  0  0
   -0.0583    1.1208    0.0000 O   0  0  0  0  0  0  0  0  0  0  0  0
    8.8000   -1.4167    0.0000 C   0  0  0  0  0  0  0  0  0  0  0  0
    8.0625   -2.7000    0.0000 C   0  0  0  0  0  0  0  0  0  0  0  0
    8.8042   -3.1292    0.0000 C   0  0  0  0  0  0  0  0  0  0  0  0
    9.5375   -1.8417    0.0000 C   0  0  0  0  0  0  0  0  0  0  0  0
   -0.7708    0.7083    0.0000 C   0  0  0  0  0  0  0  0  0  0  0  0
  2  8  1  0  0  0  0
  3  1  1  0  0  0  0
  4  3  2  0  0  0  0
  5  4  1  0  0  0  0
  6  1  1  0  0  0  0
  7  2  1  0  0  0  0
  8 20  1  0  0  0  0
  8 19  2  0  0  0  0
  9  3  1  0  0  0  0
 10  1  2  0  0  0  0
 11  1  2  0  0  0  0
 12  2  2  0  0  0  0
 13  2  2  0  0  0  0
 14 15  1  0  0  0  0
 14  5  2  0  0  0  0
 15  9  2  0  0  0  0
 16  4  1  0  0  0  0
 17  5  1  0  0  0  0
 18  6  1  0  0  0  0
 19 23  1  0  0  0  0
 20 24  2  0  0  0  0
 21  7  1  0  0  0  0
 22 29  2  0  0  0  0
 22 30  1  0  0  0  0
 23 18  2  0  0  0  0
 24 18  1  0  0  0  0
 25 22  1  0  0  0  0
 26 14  1  0  0  0  0
 27 21  1  0  0  0  0
 28 21  2  0  0  0  0
 29 28  1  0  0  0  0
 30 27  2  0  0  0  0
 31 26  1  0  0  0  0
M  END
>  <ID>
7585003

>  <Supplier>
ChemBridge

>  <clogP>
4.693000000000000e+000

>  <RB>
4

>  <tPSA>
1.015700000000000e+002

>  <Hacc>
5

>  <Hdon>
2

>  <LogSw>
-7.018000000000000e+000

>  <Group>
1

>  <Core>
235

$$$$
6147281
 OpenBabel03312015312D

 27 29  0  0  0  0  0  0  0  0999 V2000
    3.8417    0.2625    0.0000 N   0  0  0  0  0  0  0  0  0  0  0  0
   -0.1000    1.4333    0.0000 C   0  0  0  0  0  0  0  0  0  0  0  0
    3.4875   -0.4292    0.0000 C   0  0  0  0  0  0  0  0  0  0  0  0
    4.6250    0.3000    0.0000 C   0  0  0  0  0  0  0  0  0  0  0  0
    0.3375    2.0833    0.0000 C   0  0  0  0  0  0  0  0  0  0  0  0
    5.0542   -0.3667    0.0000 C   0  0  0  0  0  0  0  0  0  0  0  0
    0.2875    0.8125    0.0000 N   0  0  0  0  0  0  0  0  0  0  0  0
    2.7042   -0.4667    0.0000 N   0  0  0  0  0  0  0  0  0  0  0  0
    3.9125   -1.0792    0.0000 S   0  0  0  0  0  0  0  0  0  0  0  0
    5.8292   -0.4250    0.0000 O   0  0  0  0  0  0  0  0  0  0  0  0
   -0.0125    2.8000    0.0000 C   0  0  0  0  0  0  0  0  0  0  0  0
   -0.9458    1.3958    0.0000 O   0  0  0  0  0  0  0  0  0  0  0  0
    1.0667    0.8500    0.0000 C   0  0  0  0  0  0  0  0  0  0  0  0
    4.9917    0.9875    0.0000 O   0  0  0  0  0  0  0  0  0  0  0  0
    4.7667   -1.1000    0.0000 C   0  0  0  0  0  0  0  0  0  0  0  0
    1.4875    0.1958    0.0000 C   0  0  0  0  0  0  0  0  0  0  0  0
    2.2667    0.2333    0.0000 C   0  0  0  0  0  0  0  0  0  0  0  0
    6.0125   -1.1792    0.0000 C   0  0  0  0  0  0  0  0  0  0  0  0
    5.3667   -1.5875    0.0000 C   0  0  0  0  0  0  0  0  0  0  0  0
   -0.8458    2.8000    0.0000 Cl  0  0  0  0  0  0  0  0  0  0  0  0
    1.1375    2.0333    0.0000 C   0  0  0  0  0  0  0  0  0  0  0  0
    2.2042    1.5958    0.0000 C   0  0  0  0  0  0  0  0  0  0  0  0
    1.4292    1.5500    0.0000 C   0  0  0  0  0  0  0  0  0  0  0  0
    2.6292    0.9333    0.0000 C   0  0  0  0  0  0  0  0  0  0  0  0
    0.4292    3.4625    0.0000 C   0  0  0  0  0  0  0  0  0  0  0  0
    1.6000    2.6958    0.0000 C   0  0  0  0  0  0  0  0  0  0  0  0
    1.2292    3.4208    0.0000 C   0  0  0  0  0  0  0  0  0  0  0  0
  2  7  1  0  0  0  0
  3  1  1  0  0  0  0
  4  1  1  0  0  0  0
  5  2  1  0  0  0  0
  6  4  1  0  0  0  0
  7 13  1  0  0  0  0
  8  3  1  0  0  0  0
  9  3  2  0  0  0  0
 10  6  1  0  0  0  0
 11  5  1  0  0  0  0
 12  2  2  0  0  0  0
 13 16  1  0  0  0  0
 14  4  2  0  0  0  0
 15  6  2  0  0  0  0
 16 17  2  0  0  0  0
 17  8  1  0  0  0  0
 18 10  1  0  0  0  0
 19 15  1  0  0  0  0
 19 18  2  0  0  0  0
 20 11  1  0  0  0  0
 21  5  2  0  0  0  0
 22 24  2  0  0  0  0
 23 22  1  0  0  0  0
 23 13  2  0  0  0  0
 24 17  1  0  0  0  0
 25 11  2  0  0  0  0
 26 21  1  0  0  0  0
 27 26  2  0  0  0  0
 27 25  1  0  0  0  0
M  END
>  <ID>
6147281

>  <Supplier>
ChemBridge

>  <clogP>
2.320000000000000e+000

>  <RB>
4

>  <tPSA>
8.337000000000002e+001

>  <Hacc>
3

>  <Hdon>
3

>  <LogSw>
-4.096000000000000e+000

>  <Group>
2

>  <Core>
572

$$$$
6095958
 OpenBabel03312015312D

 24 26  0  0  0  0  0  0  0  0999 V2000
    5.2917    1.5958    0.0000 C   0  0  0  0  0  0  0  0  0  0  0  0
    4.2000    0.2708    0.0000 N   0  0  0  0  0  0  0  0  0  0  0  0
    4.2667    1.3250    0.0000 C   0  0  0  0  0  0  0  0  0  0  0  0
    5.8625    0.6958    0.0000 C   0  0  0  0  0  0  0  0  0  0  0  0
    5.1875   -0.1250    0.0000 C   0  0  0  0  0  0  0  0  0  0  0  0
    3.4792   -0.1375    0.0000 C   0  0  0  0  0  0  0  0  0  0  0  0
    5.5917    2.3708    0.0000 C   0  0  0  0  0  0  0  0  0  0  0  0
    2.8292    0.2375    0.0000 C   0  0  0  0  0  0  0  0  0  0  0  0
    3.4750   -0.9625    0.0000 O   0  0  0  0  0  0  0  0  0  0  0  0
    5.0750    3.0208    0.0000 O   0  0  0  0  0  0  0  0  0  0  0  0
    2.1792   -0.1375    0.0000 O   0  0  0  0  0  0  0  0  0  0  0  0
    1.5292    0.2375    0.0000 C   0  0  0  0  0  0  0  0  0  0  0  0
    6.4167    2.4958    0.0000 O   0  0  0  0  0  0  0  0  0  0  0  0
    0.2292    0.9875    0.0000 C   0  0  0  0  0  0  0  0  0  0  0  0
    6.9042    0.5125    0.0000 C   0  0  0  0  0  0  0  0  0  0  0  0
    5.5542   -1.1167    0.0000 C   0  0  0  0  0  0  0  0  0  0  0  0
    0.8792   -0.1375    0.0000 C   0  0  0  0  0  0  0  0  0  0  0  0
    1.5292    0.9875    0.0000 C   0  0  0  0  0  0  0  0  0  0  0  0
    0.8792    1.3625    0.0000 C   0  0  0  0  0  0  0  0  0  0  0  0
    0.2292    0.2375    0.0000 C   0  0  0  0  0  0  0  0  0  0  0  0
   -0.4208    1.3625    0.0000 C   0  0  0  0  0  0  0  0  0  0  0  0
    6.7167    3.2708    0.0000 C   0  0  0  0  0  0  0  0  0  0  0  0
    6.6042   -1.3000    0.0000 C   0  0  0  0  0  0  0  0  0  0  0  0
    7.2792   -0.4792    0.0000 C   0  0  0  0  0  0  0  0  0  0  0  0
  2  3  1  0  0  0  0
  3  1  2  0  0  0  0
  4  1  1  0  0  0  0
  5  4  2  0  0  0  0
  5  2  1  0  0  0  0
  6  2  1  0  0  0  0
  7  1  1  0  0  0  0
  8  6  1  0  0  0  0
  9  6  2  0  0  0  0
 10  7  2  0  0  0  0
 11  8  1  0  0  0  0
 12 11  1  0  0  0  0
 13  7  1  0  0  0  0
 14 19  1  0  0  0  0
 14 20  2  0  0  0  0
 15  4  1  0  0  0  0
 16  5  1  0  0  0  0
 16 23  2  0  0  0  0
 17 12  2  0  0  0  0
 18 12  1  0  0  0  0
 19 18  2  0  0  0  0
 20 17  1  0  0  0  0
 21 14  1  0  0  0  0
 22 13  1  0  0  0  0
 23 24  1  0  0  0  0
 24 15  2  0  0  0  0
M  END
>  <ID>
6095958

>  <Supplier>
ChemBridge

>  <clogP>
4.300000000000000e+000

>  <RB>
4

>  <tPSA>
5.753000000000000e+001

>  <Hacc>
5

>  <Hdon>
0

>  <LogSw>
-5.230000000000000e+000

>  <Group>
3

>  <Core>
315

$$$$
7317984
 OpenBabel03312015312D

 19 19  0  0  0  0  0  0  0  0999 V2000
    1.0542    1.5583    0.0000 C   0  0  0  0  0  0  0  0  0  0  0  0
    1.0542    0.8083    0.0000 C   0  0  0  0  0  0  0  0  0  0  0  0
    1.7042    1.9333    0.0000 C   0  0  0  0  0  0  0  0  0  0  0  0
    1.7042    0.4333    0.0000 C   0  0  0  0  0  0  0  0  0  0  0  0
    2.3500    1.5583    0.0000 C   0  0  0  0  0  0  0  0  0  0  0  0
    0.4042    0.4333    0.0000 Cl  0  0  0  0  0  0  0  0  0  0  0  0
    2.3500    0.8083    0.0000 C   0  0  0  0  0  0  0  0  0  0  0  0
    6.2500    1.5583    0.0000 N   0  0  0  0  0  0  0  0  0  0  0  0
    3.0000    1.9333    0.0000 O   0  0  0  0  0  0  0  0  0  0  0  0
    0.4042    1.9333    0.0000 C   0  0  0  0  0  0  0  0  0  0  0  0
    6.9000    1.9333    0.0000 C   0  0  3  0  0  0  0  0  0  0  0  0
    5.6000    1.9333    0.0000 C   0  0  0  0  0  0  0  0  0  0  0  0
    3.6500    1.5583    0.0000 C   0  0  0  0  0  0  0  0  0  0  0  0
    7.5500    1.5583    0.0000 C   0  0  0  0  0  0  0  0  0  0  0  0
    4.9500    1.5583    0.0000 C   0  0  0  0  0  0  0  0  0  0  0  0
    4.3000    1.9333    0.0000 C   0  0  0  0  0  0  0  0  0  0  0  0
    6.9000    2.6833    0.0000 C   0  0  0  0  0  0  0  0  0  0  0  0
    0.4042    2.6833    0.0000 C   0  0  0  0  0  0  0  0  0  0  0  0
    8.1917    1.9333    0.0000 C   0  0  0  0  0  0  0  0  0  0  0  0
  2  1  1  0  0  0  0
  3  1  2  0  0  0  0
  4  2  2  0  0  0  0
  5  3  1  0  0  0  0
  6  2  1  0  0  0  0
  7  5  2  0  0  0  0
  7  4  1  0  0  0  0
  8 12  1  0  0  0  0
  9  5  1  0  0  0  0
 10  1  1  0  0  0  0
 11  8  1  0  0  0  0
 12 15  1  0  0  0  0
 13  9  1  0  0  0  0
 14 11  1  0  0  0  0
 15 16  1  0  0  0  0
 16 13  1  0  0  0  0
 17 11  1  0  0  0  0
 18 10  1  0  0  0  0
 19 14  1  0  0  0  0
M  END
>  <ID>
7317984

>  <Supplier>
ChemBridge

>  <clogP>
2.050000000000000e+000

>  <RB>
1

>  <tPSA>
9.586000000000000e+001

>  <Hacc>
6

>  <Hdon>
3

>  <LogSw>
-2.013000000000000e+000

>  <Group>
1

>  <Core>
105

$$$$
9049360
 OpenBabel03312015312D

 20 21  0  0  0  0  0  0  0  0999 V2000
    5.4042    1.5000    0.0000 C   0  0  0  0  0  0  0  0  0  0  0  0
    6.0542    1.8750    0.0000 N   0  0  0  0  0  0  0  0  0  0  0  0
    4.7542    1.8750    0.0000 N   0  0  0  0  0  0  0  0  0  0  0  0
    5.4042    0.7500    0.0000 O   0  0  0  0  0  0  0  0  0  0  0  0
    4.1042    1.5000    0.0000 C   0  0  0  0  0  0  0  0  0  0  0  0
    2.8042    0.7500    0.0000 C   0  0  0  0  0  0  0  0  0  0  0  0
    4.1042    0.7500    0.0000 C   0  0  0  0  0  0  0  0  0  0  0  0
    3.4542    1.8750    0.0000 C   0  0  0  0  0  0  0  0  0  0  0  0
    3.4542    0.3750    0.0000 C   0  0  0  0  0  0  0  0  0  0  0  0
    2.8042    1.5000    0.0000 C   0  0  0  0  0  0  0  0  0  0  0  0
    6.6750    1.4583    0.0000 C   0  0  0  0  0  0  0  0  0  0  0  0
    6.0000    2.6250    0.0000 C   0  0  0  0  0  0  0  0  0  0  0  0
    2.1542    0.3750    0.0000 C   0  0  0  0  0  0  0  0  0  0  0  0
    1.5042    0.7500    0.0000 C   0  0  0  0  0  0  0  0  0  0  0  0
    0.8542    0.3750    0.0000 C   0  0  0  0  0  0  0  0  0  0  0  0
    6.5500    3.1333    0.0000 C   0  0  0  0  0  0  0  0  0  0  0  0
    7.3917    1.6750    0.0000 C   0  0  0  0  0  0  0  0  0  0  0  0
    0.2042    0.7500    0.0000 C   0  0  0  0  0  0  0  0  0  0  0  0
    7.2875    3.0208    0.0000 C   0  0  0  0  0  0  0  0  0  0  0  0
    7.6625    2.3708    0.0000 C   0  0  0  0  0  0  0  0  0  0  0  0
  2  1  1  0  0  0  0
  3  1  1  0  0  0  0
  4  1  2  0  0  0  0
  5  3  1  0  0  0  0
  6 10  1  0  0  0  0
  7  5  2  0  0  0  0
  8  5  1  0  0  0  0
  9  7  1  0  0  0  0
  9  6  2  0  0  0  0
 10  8  2  0  0  0  0
 11  2  1  0  0  0  0
 12  2  1  0  0  0  0
 13  6  1  0  0  0  0
 14 13  1  0  0  0  0
 15 14  1  0  0  0  0
 16 12  1  0  0  0  0
 17 11  1  0  0  0  0
 18 15  1  0  0  0  0
 19 16  1  0  0  0  0
 19 20  1  0  0  0  0
 20 17  1  0  0  0  0
M  END
>  <ID>
9049360

>  <Supplier>
ChemBridge

>  <clogP>
4.495000000000000e+000

>  <RB>
2

>  <tPSA>
3.234000000000000e+001

>  <Hacc>
1

>  <Hdon>
1

>  <LogSw>
-5.690000000000000e+000

>  <Group>
3

$$$$
7317987
 OpenBabel03312015312D

 33 35  0  0  0  0  0  0  0  0999 V2000
   10.2167   -4.0917    0.0000 C   0  0  0  0  0  0  0  0  0  0  0  0
   10.2250   -3.2750    0.0000 C   0  0  3  0  0  0  0  0  0  0  0  0
   10.9167   -4.4917    0.0000 C   0  0  0  0  0  0  0  0  0  0  0  0
    5.9417   -5.7500    0.0000 C   0  0  0  0  0  0  0  0  0  0  0  0
    6.6542   -5.3375    0.0000 C   0  0  0  0  0  0  0  0  0  0  0  0
    7.3667   -5.7542    0.0000 N   0  0  0  0  0  0  0  0  0  0  0  0
    9.5125   -2.8667    0.0000 O   0  0  0  0  0  0  0  0  0  0  0  0
   10.9167   -5.3167    0.0000 C   0  0  0  0  0  0  0  0  0  0  0  0
    8.0875   -5.3417    0.0000 C   0  0  0  0  0  0  0  0  0  0  0  0
    8.8042   -3.2792    0.0000 C   0  0  0  0  0  0  0  0  0  0  0  0
   11.6250   -5.7167    0.0000 C   0  0  0  0  0  0  0  0  0  0  0  0
    5.2250   -5.3292    0.0000 C   0  0  0  0  0  0  0  0  0  0  0  0
    9.5042   -4.4917    0.0000 O   0  0  0  0  0  0  0  0  0  0  0  0
   12.3292   -5.3167    0.0000 C   0  0  0  0  0  0  0  0  0  0  0  0
   11.6292   -4.0792    0.0000 C   0  0  0  0  0  0  0  0  0  0  0  0
   10.9292   -2.8667    0.0000 C   0  0  0  0  0  0  0  0  0  0  0  0
    8.8042   -5.7542    0.0000 O   0  0  0  0  0  0  0  0  0  0  0  0
    8.0875   -2.8667    0.0000 O   0  0  0  0  0  0  0  0  0  0  0  0
   12.3292   -4.5042    0.0000 C   0  0  0  0  0  0  0  0  0  0  0  0
    5.9417   -6.5750    0.0000 Cl  0  0  0  0  0  0  0  0  0  0  0  0
    8.0875   -4.5167    0.0000 C   0  0  0  0  0  0  0  0  0  0  0  0
    8.8000   -4.1042    0.0000 C   0  0  0  0  0  0  0  0  0  0  0  0
    4.5125   -5.7417    0.0000 Cl  0  0  0  0  0  0  0  0  0  0  0  0
    6.6625   -4.5042    0.0000 C   0  0  0  0  0  0  0  0  0  0  0  0
    5.9417   -4.0917    0.0000 C   0  0  0  0  0  0  0  0  0  0  0  0
   11.6125   -6.5417    0.0000 C   0  0  0  0  0  0  0  0  0  0  0  0
    5.2292   -4.5042    0.0000 C   0  0  0  0  0  0  0  0  0  0  0  0
   13.0292   -5.7375    0.0000 C   0  0  0  0  0  0  0  0  0  0  0  0
   10.9167   -2.0542    0.0000 C   0  0  0  0  0  0  0  0  0  0  0  0
   11.6167   -3.2750    0.0000 C   0  0  0  0  0  0  0  0  0  0  0  0
   12.3292   -2.8750    0.0000 C   0  0  0  0  0  0  0  0  0  0  0  0
   11.6167   -1.6500    0.0000 C   0  0  0  0  0  0  0  0  0  0  0  0
   12.3375   -2.0542    0.0000 C   0  0  0  0  0  0  0  0  0  0  0  0
  2  1  1  0  0  0  0
  3  1  1  0  0  0  0
  4  5  1  0  0  0  0
  5  6  1  0  0  0  0
  6  9  1  0  0  0  0
  7  2  1  0  0  0  0
  8  3  2  0  0  0  0
  9 21  1  0  0  0  0
 10  7  1  0  0  0  0
 11  8  1  0  0  0  0
 11 14  2  0  0  0  0
 12  4  2  0  0  0  0
 12 27  1  0  0  0  0
 13  1  2  0  0  0  0
 14 19  1  0  0  0  0
 15  3  1  0  0  0  0
 16  2  1  0  0  0  0
 17  9  2  0  0  0  0
 18 10  2  0  0  0  0
 19 15  2  0  0  0  0
 20  4  1  0  0  0  0
 21 22  1  0  0  0  0
 22 10  1  0  0  0  0
 23 12  1  0  0  0  0
 24  5  2  0  0  0  0
 25 24  1  0  0  0  0
 26 11  1  0  0  0  0
 27 25  2  0  0  0  0
 28 14  1  0  0  0  0
 29 16  1  0  0  0  0
 30 16  2  0  0  0  0
 31 30  1  0  0  0  0
 32 29  2  0  0  0  0
 33 31  2  0  0  0  0
 33 32  1  0  0  0  0
M  END
>  <ID>
7317987

>  <Supplier>
ChemBridge

>  <clogP>
5.913000000000000e+000

>  <RB>
9

>  <tPSA>
7.247000000000000e+001

>  <Hacc>
4

>  <Hdon>
1

>  <LogSw>
-7.780000000000000e+000

>  <Group>
1

>  <Core>
217

$$$$
6607668
 OpenBabel03312015312D

 21 24  0  0  0  0  0  0  0  0999 V2000
    8.6000    2.2083    0.0000 C   0  0  0  0  0  0  0  0  0  0  0  0
    8.6000    3.6083    0.0000 C   0  0  0  0  0  0  0  0  0  0  0  0
    6.1000    3.6083    0.0000 C   0  0  0  0  0  0  0  0  0  0  0  0
    6.1000    2.2083    0.0000 C   0  0  0  0  0  0  0  0  0  0  0  0
    7.3000    1.4000    0.0000 S   0  0  0  0  0  0  0  0  0  0  0  0
    9.8000    1.4000    0.0000 C   0  0  0  0  0  0  0  0  0  0  0  0
    9.8000    4.2917    0.0000 N   0  0  0  0  0  0  0  0  0  0  0  0
    4.9000    1.4000    0.0000 N   0  0  0  0  0  0  0  0  0  0  0  0
   11.0000    2.2083    0.0000 O   0  0  0  0  0  0  0  0  0  0  0  0
   11.0000    3.6083    0.0000 C   0  0  0  0  0  0  0  0  0  0  0  0
    3.7000    2.2083    0.0000 C   0  0  0  0  0  0  0  0  0  0  0  0
    4.9000    4.2917    0.0000 C   0  0  0  0  0  0  0  0  0  0  0  0
    3.7000    3.6083    0.0000 C   0  0  0  0  0  0  0  0  0  0  0  0
    2.5000    1.4000    0.0000 C   0  0  0  0  0  0  0  0  0  0  0  0
    1.3000    3.6083    0.0000 O   0  0  0  0  0  0  0  0  0  0  0  0
    1.3000    2.2083    0.0000 C   0  0  0  0  0  0  0  0  0  0  0  0
    9.8000    0.0000    0.0000 O   0  0  0  0  0  0  0  0  0  0  0  0
    2.5000    4.2917    0.0000 C   0  0  0  0  0  0  0  0  0  0  0  0
   12.2000    4.2917    0.0000 C   0  0  0  0  0  0  0  0  0  0  0  0
    0.0000    2.9000    0.0000 C   0  0  0  0  0  0  0  0  0  0  0  0
    1.3000    0.7000    0.0000 C   0  0  0  0  0  0  0  0  0  0  0  0
  2  1  2  0  0  0  0
  3  2  1  0  0  0  0
  3  4  1  0  0  0  0
  4  5  1  0  0  0  0
  5  1  1  0  0  0  0
  6  1  1  0  0  0  0
  7  2  1  0  0  0  0
  7 10  2  0  0  0  0
  8  4  2  0  0  0  0
  9  6  1  0  0  0  0
 10  9  1  0  0  0  0
 11  8  1  0  0  0  0
 12  3  2  0  0  0  0
 13 12  1  0  0  0  0
 13 11  2  0  0  0  0
 14 11  1  0  0  0  0
 15 18  1  0  0  0  0
 16 14  1  0  0  0  0
 16 15  1  0  0  0  0
 17  6  2  0  0  0  0
 18 13  1  0  0  0  0
 19 10  1  0  0  0  0
 20 16  1  0  0  0  0
 21 16  1  0  0  0  0
M  END
>  <ID>
6607668

>  <Supplier>
ChemBridge

>  <clogP>
1.030000000000000e+000

>  <RB>
0

>  <tPSA>
6.522000000000000e+001

>  <Hacc>
5

>  <Hdon>
0

>  <LogSw>
-2.285000000000000e+000

>  <Group>
3

$$$$
5606772
 OpenBabel03312015312D

 29 32  0  0  0  0  0  0  0  0999 V2000
    2.6042   -3.6292    0.0000 C   0  0  0  0  0  0  0  0  0  0  0  0
    1.9542   -3.2542    0.0000 C   0  0  3  0  0  0  0  0  0  0  0  0
    1.3167   -3.6292    0.0000 C   0  0  0  0  0  0  0  0  0  0  0  0
    2.6042   -4.3792    0.0000 C   0  0  0  0  0  0  0  0  0  0  0  0
    1.3167   -4.3792    0.0000 C   0  0  0  0  0  0  0  0  0  0  0  0
    1.9542   -1.7167    0.0000 C   0  0  0  0  0  0  0  0  0  0  0  0
    1.9542   -4.7542    0.0000 N   0  0  0  0  0  0  0  0  0  0  0  0
    1.3042   -1.3500    0.0000 C   0  0  0  0  0  0  0  0  0  0  0  0
    3.2667   -3.2500    0.0000 C   0  0  0  0  0  0  0  0  0  0  0  0
    2.6042   -1.3500    0.0000 C   0  0  0  0  0  0  0  0  0  0  0  0
    1.3042   -0.6000    0.0000 C   0  0  0  0  0  0  0  0  0  0  0  0
    2.6042   -0.6000    0.0000 C   0  0  0  0  0  0  0  0  0  0  0  0
    1.9542   -0.2167    0.0000 C   0  0  0  0  0  0  0  0  0  0  0  0
    0.6667   -3.2542    0.0000 C   0  0  0  0  0  0  0  0  0  0  0  0
    3.1667   -0.0875    0.0000 O   0  0  0  0  0  0  0  0  0  0  0  0
    2.1042    0.5000    0.0000 O   0  0  0  0  0  0  0  0  0  0  0  0
    2.8542    0.5833    0.0000 C   0  0  0  0  0  0  0  0  0  0  0  0
    3.2667   -2.5000    0.0000 O   0  0  0  0  0  0  0  0  0  0  0  0
    0.6667   -2.5042    0.0000 O   0  0  0  0  0  0  0  0  0  0  0  0
    0.6542   -1.7167    0.0000 Br  0  0  0  0  0  0  0  0  0  0  0  0
    0.6667   -4.7542    0.0000 C   0  0  0  0  0  0  0  0  0  0  0  0
    3.9167   -3.6167    0.0000 O   0  0  0  0  0  0  0  0  0  0  0  0
    3.2667   -4.7542    0.0000 C   0  0  0  0  0  0  0  0  0  0  0  0
    0.0167   -3.6292    0.0000 C   0  0  0  0  0  0  0  0  0  0  0  0
    0.0167   -4.3792    0.0000 C   0  0  0  0  0  0  0  0  0  0  0  0
    5.8667   -3.2375    0.0000 O   0  0  0  0  0  0  0  0  0  0  0  0
    4.5667   -3.2500    0.0000 C   0  0  0  0  0  0  0  0  0  0  0  0
    5.2167   -3.6167    0.0000 C   0  0  0  0  0  0  0  0  0  0  0  0
    6.5167   -3.6167    0.0000 C   0  0  0  0  0  0  0  0  0  0  0  0
  2  1  1  0  0  0  0
  3  2  1  0  0  0  0
  3  5  2  0  0  0  0
  4  1  2  0  0  0  0
  5  7  1  0  0  0  0
  6  2  1  0  0  0  0
  7  4  1  0  0  0  0
  8  6  1  0  0  0  0
  9  1  1  0  0  0  0
 10  6  2  0  0  0  0
 11  8  2  0  0  0  0
 12 10  1  0  0  0  0
 13 12  2  0  0  0  0
 13 11  1  0  0  0  0
 14  3  1  0  0  0  0
 15 12  1  0  0  0  0
 16 13  1  0  0  0  0
 16 17  1  0  0  0  0
 17 15  1  0  0  0  0
 18  9  2  0  0  0  0
 19 14  2  0  0  0  0
 20  8  1  0  0  0  0
 21  5  1  0  0  0  0
 22  9  1  0  0  0  0
 23  4  1  0  0  0  0
 24 14  1  0  0  0  0
 25 21  1  0  0  0  0
 25 24  1  0  0  0  0
 26 28  1  0  0  0  0
 27 22  1  0  0  0  0
 28 27  1  0  0  0  0
 29 26  1  0  0  0  0
M  END
>  <ID>
5606772

>  <Supplier>
ChemBridge

>  <clogP>
2.840000000000000e+000

>  <RB>
5

>  <tPSA>
8.309000000000000e+001

>  <Hacc>
6

>  <Hdon>
1

>  <LogSw>
-4.002000000000000e+000

>  <Group>
1

>  <Core>
085

$$$$
7885274
 OpenBabel03312015312D

 16 18  0  0  0  0  0  0  0  0999 V2000
    2.3542    1.5083    0.0000 C   0  0  0  0  0  0  0  0  0  0  0  0
    2.3542    0.7583    0.0000 C   0  0  0  0  0  0  0  0  0  0  0  0
    1.0542    1.5083    0.0000 N   0  0  0  0  0  0  0  0  0  0  0  0
    1.7042    1.8833    0.0000 C   0  0  0  0  0  0  0  0  0  0  0  0
    1.7042    0.3833    0.0000 N   0  0  0  0  0  0  0  0  0  0  0  0
    1.0542    0.7583    0.0000 C   0  0  0  0  0  0  0  0  0  0  0  0
    3.0667    0.5250    0.0000 S   0  0  0  0  0  0  0  0  0  0  0  0
    3.0667    1.7375    0.0000 C   0  0  0  0  0  0  0  0  0  0  0  0
    3.5125    1.1333    0.0000 C   0  0  0  0  0  0  0  0  0  0  0  0
    1.7042    2.6333    0.0000 N   0  0  0  0  0  0  0  0  0  0  0  0
    0.4042    0.3833    0.0000 O   0  0  0  0  0  0  0  0  0  0  0  0
    0.4042    1.8833    0.0000 N   0  0  0  0  0  0  0  0  0  0  0  0
    3.3750    2.4208    0.0000 C   0  0  0  0  0  0  0  0  0  0  0  0
    4.2542    1.2083    0.0000 C   0  0  0  0  0  0  0  0  0  0  0  0
    4.1167    2.5000    0.0000 C   0  0  0  0  0  0  0  0  0  0  0  0
    4.5625    1.8958    0.0000 C   0  0  0  0  0  0  0  0  0  0  0  0
  2  1  2  0  0  0  0
  3  4  1  0  0  0  0
  4  1  1  0  0  0  0
  5  2  1  0  0  0  0
  6  3  1  0  0  0  0
  6  5  1  0  0  0  0
  7  2  1  0  0  0  0
  7  9  1  0  0  0  0
  8  1  1  0  0  0  0
  9  8  2  0  0  0  0
 10  4  2  0  0  0  0
 11  6  2  0  0  0  0
 12  3  1  0  0  0  0
 13  8  1  0  0  0  0
 14  9  1  0  0  0  0
 15 13  1  0  0  0  0
 16 15  1  0  0  0  0
 16 14  1  0  0  0  0
M  END
>  <ID>
7885274

>  <Supplier>
ChemBridge

>  <clogP>
4.600000000000000e-001

>  <RB>
0

>  <tPSA>
8.766000000000000e+001

>  <Hacc>
2

>  <Hdon>
3

>  <LogSw>
-1.317000000000000e+000

>  <Group>
2

$$$$
5606778
 OpenBabel03312015312D

 26 28  0  0  0  0  0  0  0  0999 V2000
   -5.6958    2.0333    0.0000 C   0  0  0  0  0  0  0  0  0  0  0  0
   -6.5292    3.4458    0.0000 C   0  0  3  0  0  0  0  0  0  0  0  0
   -6.5292    0.6625    0.0000 C   0  0  0  0  0  0  0  0  0  0  0  0
   -6.5292    9.0667    0.0000 N   0  3  0  0  0  0  0  0  0  0  0  0
   -8.9042    2.0333    0.0000 C   0  0  0  0  0  0  0  0  0  0  0  0
   -8.1167    0.6625    0.0000 N   0  0  0  0  0  0  0  0  0  0  0  0
   -8.1542    3.4458    0.0000 N   0  0  0  0  0  0  0  0  0  0  0  0
   -4.0625    2.0333    0.0000 C   0  0  0  0  0  0  0  0  0  0  0  0
   -5.7458    4.8375    0.0000 C   0  0  0  0  0  0  0  0  0  0  0  0
   -5.7458    7.6542    0.0000 C   0  0  0  0  0  0  0  0  0  0  0  0
   -6.5792    6.2500    0.0000 C   0  0  0  0  0  0  0  0  0  0  0  0
   -5.6958   10.4375    0.0000 O   0  5  0  0  0  0  0  0  0  0  0  0
   -8.1292    9.0667    0.0000 O   0  0  0  0  0  0  0  0  0  0  0  0
   -3.2458    0.6208    0.0000 O   0  0  0  0  0  0  0  0  0  0  0  0
  -10.5375    2.0333    0.0000 O   0  0  0  0  0  0  0  0  0  0  0  0
   -3.2458    3.4583    0.0000 O   0  0  0  0  0  0  0  0  0  0  0  0
   -1.4500   -2.3042    0.0000 O   0  0  0  0  0  0  0  0  0  0  0  0
   -5.6958   -0.7375    0.0000 C   0  0  0  0  0  0  0  0  0  0  0  0
   -1.6208    0.6208    0.0000 C   0  0  0  0  0  0  0  0  0  0  0  0
   -0.8125   -0.7792    0.0000 C   0  0  3  0  0  0  0  0  0  0  0  0
   -4.1125    4.8375    0.0000 C   0  0  0  0  0  0  0  0  0  0  0  0
   -4.1125    7.6542    0.0000 C   0  0  0  0  0  0  0  0  0  0  0  0
   -3.3208    6.2042    0.0000 C   0  0  0  0  0  0  0  0  0  0  0  0
   -0.2208   -3.3875    0.0000 C   0  0  0  0  0  0  0  0  0  0  0  0
    0.8000   -0.9042    0.0000 C   0  0  0  0  0  0  0  0  0  0  0  0
    1.1875   -2.5375    0.0000 C   0  0  0  0  0  0  0  0  0  0  0  0
  2  1  1  0  0  0  0
  3  1  2  0  0  0  0
  4 10  1  0  0  0  0
  5  6  1  0  0  0  0
  6  3  1  0  0  0  0
  7  2  1  0  0  0  0
  7  5  1  0  0  0  0
  8  1  1  0  0  0  0
  9  2  1  0  0  0  0
 10 11  2  0  0  0  0
 11  9  1  0  0  0  0
 12  4  1  0  0  0  0
 13  4  2  0  0  0  0
 14  8  1  0  0  0  0
 15  5  2  0  0  0  0
 16  8  2  0  0  0  0
 17 20  1  0  0  0  0
 18  3  1  0  0  0  0
 19 14  1  0  0  0  0
 20 19  1  0  0  0  0
 21  9  2  0  0  0  0
 22 23  2  0  0  0  0
 22 10  1  0  0  0  0
 23 21  1  0  0  0  0
 24 17  1  0  0  0  0
 24 26  1  0  0  0  0
 25 20  1  0  0  0  0
 26 25  1  0  0  0  0
M  CHG  2   4   1  12  -1
M  END
>  <ID>
5606778

>  <Supplier>
ChemBridge

>  <clogP>
3.570000000000000e+000

>  <RB>
5

>  <tPSA>
1.198000000000000e+002

>  <Hacc>
6

>  <Hdon>
2

>  <LogSw>
-5.273000000000002e+000

>  <Group>
1

>  <Core>
072

$$$$
5606779
 OpenBabel03312015312D

 23 25  0  0  0  0  0  0  0  0999 V2000
   -5.6958    2.0333    0.0000 C   0  0  0  0  0  0  0  0  0  0  0  0
   -6.5292    3.4458    0.0000 C   0  0  3  0  0  0  0  0  0  0  0  0
   -6.5292    0.6625    0.0000 C   0  0  0  0  0  0  0  0  0  0  0  0
   -4.0625    2.0333    0.0000 C   0  0  0  0  0  0  0  0  0  0  0  0
   -8.9042    2.0333    0.0000 C   0  0  0  0  0  0  0  0  0  0  0  0
   -8.1167    0.6625    0.0000 N   0  0  0  0  0  0  0  0  0  0  0  0
   -8.1542    3.4458    0.0000 N   0  0  0  0  0  0  0  0  0  0  0  0
   -5.7458    4.8375    0.0000 C   0  0  0  0  0  0  0  0  0  0  0  0
   -3.2458    0.6208    0.0000 O   0  0  0  0  0  0  0  0  0  0  0  0
   -3.2458    3.4583    0.0000 O   0  0  0  0  0  0  0  0  0  0  0  0
  -10.5375    2.0333    0.0000 O   0  0  0  0  0  0  0  0  0  0  0  0
   -6.5792    6.2500    0.0000 C   0  0  0  0  0  0  0  0  0  0  0  0
   -5.7458    7.6542    0.0000 C   0  0  0  0  0  0  0  0  0  0  0  0
   -5.6958   -0.7375    0.0000 C   0  0  0  0  0  0  0  0  0  0  0  0
   -6.5292    9.0667    0.0000 Cl  0  0  0  0  0  0  0  0  0  0  0  0
   -1.6125    0.6208    0.0000 C   0  0  0  0  0  0  0  0  0  0  0  0
   -4.1125    4.8375    0.0000 C   0  0  0  0  0  0  0  0  0  0  0  0
   -3.3208    6.2042    0.0000 C   0  0  0  0  0  0  0  0  0  0  0  0
   -4.1125    7.6542    0.0000 C   0  0  0  0  0  0  0  0  0  0  0  0
   -0.6958    1.9458    0.0000 C   0  0  0  0  0  0  0  0  0  0  0  0
   -0.6208   -0.7000    0.0000 C   0  0  0  0  0  0  0  0  0  0  0  0
    0.9292   -0.1500    0.0000 C   0  0  0  0  0  0  0  0  0  0  0  0
    0.8875    1.4458    0.0000 C   0  0  0  0  0  0  0  0  0  0  0  0
  2  1  1  0  0  0  0
  3  1  2  0  0  0  0
  4  1  1  0  0  0  0
  5  6  1  0  0  0  0
  6  3  1  0  0  0  0
  7  2  1  0  0  0  0
  7  5  1  0  0  0  0
  8  2  1  0  0  0  0
  9  4  1  0  0  0  0
 10  4  2  0  0  0  0
 11  5  2  0  0  0  0
 12  8  1  0  0  0  0
 13 12  2  0  0  0  0
 14  3  1  0  0  0  0
 15 13  1  0  0  0  0
 16  9  1  0  0  0  0
 17  8  2  0  0  0  0
 18 17  1  0  0  0  0
 19 18  2  0  0  0  0
 19 13  1  0  0  0  0
 20 16  1  0  0  0  0
 21 16  1  0  0  0  0
 22 21  1  0  0  0  0
 23 20  1  0  0  0  0
 23 22  1  0  0  0  0
M  END
>  <ID>
5606779

>  <Supplier>
ChemBridge

>  <clogP>
5.590000000000000e+000

>  <RB>
4

>  <tPSA>
6.743000000000001e+001

>  <Hacc>
3

>  <Hdon>
2

>  <LogSw>
-6.415000000000000e+000

>  <Group>
1

>  <Core>
072

$$$$
9049363
 OpenBabel03312015312D

 18 19  0  0  0  0  0  0  0  0999 V2000
    1.5875    1.7000    0.0000 C   0  0  0  0  0  0  0  0  0  0  0  0
    0.8667    1.4708    0.0000 C   0  0  0  0  0  0  0  0  0  0  0  0
   -0.3958    1.7458    0.0000 C   0  0  0  0  0  0  0  0  0  0  0  0
   -1.0083    2.1833    0.0000 S   0  0  0  0  0  0  0  0  0  0  0  0
    0.3167    1.9708    0.0000 N   0  0  0  0  0  0  0  0  0  0  0  0
    2.8000    1.7000    0.0000 N   0  0  0  0  0  0  0  0  0  0  0  0
    2.1917    1.2625    0.0000 N   0  0  0  0  0  0  0  0  0  0  0  0
   -0.6333    1.0250    0.0000 N   0  0  0  0  0  0  0  0  0  0  0  0
   -1.6125    1.7458    0.0000 C   0  0  0  0  0  0  0  0  0  0  0  0
   -1.3833    1.0250    0.0000 N   0  0  0  0  0  0  0  0  0  0  0  0
    1.8167    2.4208    0.0000 C   0  0  0  0  0  0  0  0  0  0  0  0
    2.5667    2.4208    0.0000 C   0  0  0  0  0  0  0  0  0  0  0  0
    0.7167    0.7375    0.0000 O   0  0  0  0  0  0  0  0  0  0  0  0
   -2.3250    1.9708    0.0000 S   0  0  0  0  0  0  0  0  0  0  0  0
    1.3750    3.0208    0.0000 Cl  0  0  0  0  0  0  0  0  0  0  0  0
    2.1917    0.5125    0.0000 C   0  0  0  0  0  0  0  0  0  0  0  0
   -2.8833    1.4708    0.0000 C   0  0  0  0  0  0  0  0  0  0  0  0
   -3.5958    1.7000    0.0000 C   0  0  0  0  0  0  0  0  0  0  0  0
  2  1  1  0  0  0  0
  3  5  1  0  0  0  0
  4  3  1  0  0  0  0
  5  2  1  0  0  0  0
  6  7  1  0  0  0  0
  6 12  2  0  0  0  0
  7  1  1  0  0  0  0
  8  3  2  0  0  0  0
  9  4  1  0  0  0  0
 10  8  1  0  0  0  0
 10  9  2  0  0  0  0
 11  1  2  0  0  0  0
 12 11  1  0  0  0  0
 13  2  2  0  0  0  0
 14  9  1  0  0  0  0
 15 11  1  0  0  0  0
 16  7  1  0  0  0  0
 17 14  1  0  0  0  0
 18 17  1  0  0  0  0
M  END
>  <ID>
9049363

>  <Supplier>
ChemBridge

>  <clogP>
6.550000000000000e-001

>  <RB>
3

>  <tPSA>
7.270000000000000e+001

>  <Hacc>
4

>  <Hdon>
1

>  <LogSw>
-3.377000000000000e+000

>  <Group>
2

>  <Core>
034

$$$$
7799774
 OpenBabel03312015312D

 24 27  0  0  0  0  0  0  0  0999 V2000
    4.9500    0.0000    0.0000 N   0  0  0  0  0  0  0  0  0  0  0  0
    4.5042   -0.6042    0.0000 C   0  0  0  0  0  0  0  0  0  0  0  0
    4.5042    0.6083    0.0000 C   0  0  0  0  0  0  0  0  0  0  0  0
    3.7917   -0.3667    0.0000 C   0  0  0  0  0  0  0  0  0  0  0  0
    3.7917    0.3833    0.0000 C   0  0  0  0  0  0  0  0  0  0  0  0
    1.1917   -0.3667    0.0000 C   0  0  0  0  0  0  0  0  0  0  0  0
    1.8417   -0.7417    0.0000 N   0  0  0  0  0  0  0  0  0  0  0  0
    0.5417   -0.7417    0.0000 C   0  0  0  0  0  0  0  0  0  0  0  0
   -0.7583   -0.7417    0.0000 C   0  0  0  0  0  0  0  0  0  0  0  0
    3.1417    0.7583    0.0000 C   0  0  0  0  0  0  0  0  0  0  0  0
   -0.1083   -0.3667    0.0000 C   0  0  0  0  0  0  0  0  0  0  0  0
    3.1417   -0.7417    0.0000 C   0  0  0  0  0  0  0  0  0  0  0  0
    4.7375   -1.3167    0.0000 O   0  0  0  0  0  0  0  0  0  0  0  0
    4.7417    1.3208    0.0000 O   0  0  0  0  0  0  0  0  0  0  0  0
   -0.7583   -1.5000    0.0000 C   0  0  0  0  0  0  0  0  0  0  0  0
   -1.4750   -0.5125    0.0000 O   0  0  0  0  0  0  0  0  0  0  0  0
   -1.4750   -1.7292    0.0000 O   0  0  0  0  0  0  0  0  0  0  0  0
    2.4917   -0.3667    0.0000 C   0  0  0  0  0  0  0  0  0  0  0  0
   -1.9208   -1.1167    0.0000 C   0  0  0  0  0  0  0  0  0  0  0  0
    1.1917    0.3833    0.0000 O   0  0  0  0  0  0  0  0  0  0  0  0
    0.5417   -1.5000    0.0000 C   0  0  0  0  0  0  0  0  0  0  0  0
   -0.1083   -1.8750    0.0000 C   0  0  0  0  0  0  0  0  0  0  0  0
    5.7000    0.0000    0.0000 C   0  0  0  0  0  0  0  0  0  0  0  0
    2.4917    0.3833    0.0000 C   0  0  0  0  0  0  0  0  0  0  0  0
  2  1  1  0  0  0  0
  3  1  1  0  0  0  0
  4  2  1  0  0  0  0
  4  5  1  0  0  0  0
  5  3  1  0  0  0  0
  6  7  1  0  0  0  0
  7 18  1  0  0  0  0
  8  6  1  0  0  0  0
  9 11  2  0  0  0  0
 10  5  2  0  0  0  0
 11  8  1  0  0  0  0
 12  4  2  0  0  0  0
 13  2  2  0  0  0  0
 14  3  2  0  0  0  0
 15 22  2  0  0  0  0
 15  9  1  0  0  0  0
 16  9  1  0  0  0  0
 17 15  1  0  0  0  0
 17 19  1  0  0  0  0
 18 12  1  0  0  0  0
 19 16  1  0  0  0  0
 20  6  2  0  0  0  0
 21  8  2  0  0  0  0
 22 21  1  0  0  0  0
 23  1  1  0  0  0  0
 24 10  1  0  0  0  0
 24 18  2  0  0  0  0
M  END
>  <ID>
7799774

>  <Supplier>
ChemBridge

>  <clogP>
2.170000000000000e+000

>  <RB>
2

>  <tPSA>
8.494000000000000e+001

>  <Hacc>
5

>  <Hdon>
1

>  <LogSw>
-3.418000000000000e+000

>  <Group>
2

>  <Core>
128

$$$$
7030881
 OpenBabel03312015312D

 30 32  0  0  0  0  0  0  0  0999 V2000
    6.0917   -2.0792    0.0000 S   0  0  0  0  0  0  0  0  0  0  0  0
    6.0917   -2.9042    0.0000 N   0  0  0  0  0  0  0  0  0  0  0  0
    6.8167   -3.3167    0.0000 C   0  0  0  0  0  0  0  0  0  0  0  0
    7.5292   -2.9042    0.0000 C   0  0  0  0  0  0  0  0  0  0  0  0
    5.3792   -1.6625    0.0000 C   0  0  0  0  0  0  0  0  0  0  0  0
    8.2500   -3.3167    0.0000 N   0  0  0  0  0  0  0  0  0  0  0  0
    8.2417   -4.1500    0.0000 C   0  0  0  0  0  0  0  0  0  0  0  0
    6.8125   -1.6542    0.0000 O   0  0  0  0  0  0  0  0  0  0  0  0
    5.3917   -2.5125    0.0000 O   0  0  0  0  0  0  0  0  0  0  0  0
    8.9667   -4.5667    0.0000 C   0  0  0  0  0  0  0  0  0  0  0  0
    5.3792   -3.3250    0.0000 C   0  0  0  0  0  0  0  0  0  0  0  0
    7.5292   -2.0750    0.0000 O   0  0  0  0  0  0  0  0  0  0  0  0
    8.9667   -5.3917    0.0000 C   0  0  0  0  0  0  0  0  0  0  0  0
    7.5250   -4.5667    0.0000 C   0  0  0  0  0  0  0  0  0  0  0  0
    5.3792   -0.8292    0.0000 C   0  0  0  0  0  0  0  0  0  0  0  0
    4.6542   -2.0792    0.0000 C   0  0  0  0  0  0  0  0  0  0  0  0
    8.2417   -5.8125    0.0000 C   0  0  0  0  0  0  0  0  0  0  0  0
    3.9417   -0.8292    0.0000 C   0  0  0  0  0  0  0  0  0  0  0  0
    5.3917   -4.1500    0.0000 C   0  0  0  0  0  0  0  0  0  0  0  0
    7.5250   -5.3917    0.0000 C   0  0  0  0  0  0  0  0  0  0  0  0
    3.9417   -1.6625    0.0000 C   0  0  0  0  0  0  0  0  0  0  0  0
    4.6542   -0.4167    0.0000 C   0  0  0  0  0  0  0  0  0  0  0  0
    8.2417   -6.6417    0.0000 Cl  0  0  0  0  0  0  0  0  0  0  0  0
    3.2292   -0.4167    0.0000 F   0  0  0  0  0  0  0  0  0  0  0  0
    9.6875   -4.1417    0.0000 C   0  0  0  0  0  0  0  0  0  0  0  0
    4.6792   -4.5625    0.0000 C   0  0  0  0  0  0  0  0  0  0  0  0
    6.1042   -4.5500    0.0000 C   0  0  0  0  0  0  0  0  0  0  0  0
    6.1167   -5.3750    0.0000 C   0  0  0  0  0  0  0  0  0  0  0  0
    4.6875   -5.3875    0.0000 C   0  0  0  0  0  0  0  0  0  0  0  0
    5.4042   -5.8000    0.0000 C   0  0  0  0  0  0  0  0  0  0  0  0
  2  1  1  0  0  0  0
  3  2  1  0  0  0  0
  4  3  1  0  0  0  0
  5  1  1  0  0  0  0
  6  4  1  0  0  0  0
  7  6  1  0  0  0  0
  8  1  2  0  0  0  0
  9  1  2  0  0  0  0
 10  7  1  0  0  0  0
 11  2  1  0  0  0  0
 12  4  2  0  0  0  0
 13 10  2  0  0  0  0
 14  7  2  0  0  0  0
 15  5  1  0  0  0  0
 16  5  2  0  0  0  0
 17 20  2  0  0  0  0
 17 13  1  0  0  0  0
 18 21  2  0  0  0  0
 19 11  1  0  0  0  0
 20 14  1  0  0  0  0
 21 16  1  0  0  0  0
 22 15  2  0  0  0  0
 22 18  1  0  0  0  0
 23 17  1  0  0  0  0
 24 18  1  0  0  0  0
 25 10  1  0  0  0  0
 26 19  2  0  0  0  0
 27 19  1  0  0  0  0
 28 27  2  0  0  0  0
 29 26  1  0  0  0  0
 29 30  2  0  0  0  0
 30 28  1  0  0  0  0
M  END
>  <ID>
7030881

>  <Supplier>
ChemBridge

>  <clogP>
5.090000000000000e+000

>  <RB>
6

>  <tPSA>
6.647999999999998e+001

>  <Hacc>
4

>  <Hdon>
1

>  <LogSw>
-6.803999999999999e+000

>  <Group>
3

>  <Core>
084

$$$$
9109833
 OpenBabel03312015312D

 23 25  0  0  0  0  0  0  0  0999 V2000
    6.3667    0.6375    0.0000 C   0  0  0  0  0  0  0  0  0  0  0  0
    7.0542    0.3333    0.0000 N   0  0  0  0  0  0  0  0  0  0  0  0
    6.4417    1.3833    0.0000 S   0  0  0  0  0  0  0  0  0  0  0  0
    5.7167    0.2625    0.0000 N   0  0  0  0  0  0  0  0  0  0  0  0
    7.5542    0.8958    0.0000 C   0  0  0  0  0  0  0  0  0  0  0  0
    7.1792    1.5458    0.0000 C   0  0  0  0  0  0  0  0  0  0  0  0
    2.4667    1.3875    0.0000 N   0  0  0  0  0  0  0  0  0  0  0  0
    5.0667    0.6375    0.0000 C   0  0  0  0  0  0  0  0  0  0  0  0
    3.7667    0.6375    0.0000 N   0  0  0  0  0  0  0  0  0  0  0  0
    4.4167    0.2625    0.0000 C   0  0  0  0  0  0  0  0  0  0  0  0
    3.1167    1.7625    0.0000 C   0  0  0  0  0  0  0  0  0  0  0  0
    2.4667    0.6375    0.0000 C   0  0  0  0  0  0  0  0  0  0  0  0
    1.8167    1.7625    0.0000 C   0  0  0  0  0  0  0  0  0  0  0  0
    5.0667    1.3875    0.0000 O   0  0  0  0  0  0  0  0  0  0  0  0
    3.1167    0.2625    0.0000 C   0  0  0  0  0  0  0  0  0  0  0  0
    3.7667    1.3875    0.0000 C   0  0  0  0  0  0  0  0  0  0  0  0
    8.3000    0.8125    0.0000 C   0  0  0  0  0  0  0  0  0  0  0  0
    7.4792    2.2250    0.0000 C   0  0  0  0  0  0  0  0  0  0  0  0
    1.8167    2.5208    0.0000 C   0  0  0  0  0  0  0  0  0  0  0  0
    1.1667    1.3875    0.0000 C   0  0  0  0  0  0  0  0  0  0  0  0
    0.5167    1.7625    0.0000 C   0  0  0  0  0  0  0  0  0  0  0  0
    1.1667    2.8958    0.0000 C   0  0  0  0  0  0  0  0  0  0  0  0
    0.5167    2.5208    0.0000 C   0  0  0  0  0  0  0  0  0  0  0  0
  2  1  2  0  0  0  0
  3  1  1  0  0  0  0
  4  1  1  0  0  0  0
  5  2  1  0  0  0  0
  6  3  1  0  0  0  0
  6  5  2  0  0  0  0
  7 11  1  0  0  0  0
  7 12  1  0  0  0  0
  8  4  1  0  0  0  0
  9 10  1  0  0  0  0
 10  8  1  0  0  0  0
 11 16  1  0  0  0  0
 12 15  1  0  0  0  0
 13  7  1  0  0  0  0
 14  8  2  0  0  0  0
 15  9  1  0  0  0  0
 16  9  1  0  0  0  0
 17  5  1  0  0  0  0
 18  6  1  0  0  0  0
 19 13  1  0  0  0  0
 20 13  2  0  0  0  0
 21 20  1  0  0  0  0
 22 19  2  0  0  0  0
 22 23  1  0  0  0  0
 23 21  2  0  0  0  0
M  END
>  <ID>
9109833

>  <Supplier>
ChemBridge

>  <clogP>
2.837000000000000e+000

>  <RB>
4

>  <tPSA>
4.847000000000000e+001

>  <Hacc>
3

>  <Hdon>
1

>  <LogSw>
-4.032000000000000e+000

>  <Group>
2

>  <Core>
227

$$$$
6648983
 OpenBabel03312015312D

 29 32  0  0  0  0  0  0  0  0999 V2000
   -3.6708   -0.5000    0.0000 C   0  0  0  0  0  0  0  0  0  0  0  0
   -3.0333   -0.1042    0.0000 C   0  0  0  0  0  0  0  0  0  0  0  0
   -2.3958   -1.2167    0.0000 C   0  0  0  0  0  0  0  0  0  0  0  0
   -3.0333   -1.5792    0.0000 C   0  0  0  0  0  0  0  0  0  0  0  0
   -2.3958   -0.5000    0.0000 C   0  0  3  0  0  0  0  0  0  0  0  0
   -3.6708   -1.2167    0.0000 O   0  0  0  0  0  0  0  0  0  0  0  0
   -4.2208    0.0125    0.0000 N   0  0  0  0  0  0  0  0  0  0  0  0
   -3.9125    0.6708    0.0000 N   0  0  0  0  0  0  0  0  0  0  0  0
    0.8292    0.6125    0.0000 C   0  0  0  0  0  0  0  0  0  0  0  0
   -3.1958    0.5833    0.0000 C   0  0  0  0  0  0  0  0  0  0  0  0
   -1.7333   -1.5792    0.0000 C   0  0  0  0  0  0  0  0  0  0  0  0
    1.4667    0.9708    0.0000 C   0  0  0  0  0  0  0  0  0  0  0  0
   -1.0958   -1.9667    0.0000 N   0  0  0  0  0  0  0  0  0  0  0  0
   -1.7500   -0.1042    0.0000 C   0  0  0  0  0  0  0  0  0  0  0  0
    0.1875    0.9708    0.0000 O   0  0  0  0  0  0  0  0  0  0  0  0
    2.1667    0.7333    0.0000 O   0  0  0  0  0  0  0  0  0  0  0  0
    1.4667    1.6958    0.0000 C   0  0  0  0  0  0  0  0  0  0  0  0
    0.8292   -0.1375    0.0000 O   0  0  0  0  0  0  0  0  0  0  0  0
   -3.0333   -2.3292    0.0000 N   0  0  0  0  0  0  0  0  0  0  0  0
    2.5875    1.3625    0.0000 C   0  0  0  0  0  0  0  0  0  0  0  0
    2.1667    1.9333    0.0000 C   0  0  0  0  0  0  0  0  0  0  0  0
   -1.7500    0.6125    0.0000 C   0  0  0  0  0  0  0  0  0  0  0  0
   -1.1125   -0.5000    0.0000 C   0  0  0  0  0  0  0  0  0  0  0  0
   -0.4708    0.6125    0.0000 C   0  0  0  0  0  0  0  0  0  0  0  0
   -1.1125    0.9708    0.0000 C   0  0  0  0  0  0  0  0  0  0  0  0
   -0.4708   -0.1042    0.0000 C   0  0  0  0  0  0  0  0  0  0  0  0
   -2.6958    1.1500    0.0000 C   0  0  0  0  0  0  0  0  0  0  0  0
   -2.9500    1.8458    0.0000 C   0  0  0  0  0  0  0  0  0  0  0  0
   -2.4333    2.3958    0.0000 C   0  0  0  0  0  0  0  0  0  0  0  0
  2  1  2  0  0  0  0
  3  4  2  0  0  0  0
  3  5  1  0  0  0  0
  4  6  1  0  0  0  0
  5  2  1  0  0  0  0
  6  1  1  0  0  0  0
  7  1  1  0  0  0  0
  8  7  1  0  0  0  0
  8 10  2  0  0  0  0
  9 15  1  0  0  0  0
 10  2  1  0  0  0  0
 11  3  1  0  0  0  0
 12  9  1  0  0  0  0
 13 11  3  0  0  0  0
 14  5  1  0  0  0  0
 15 24  1  0  0  0  0
 16 12  1  0  0  0  0
 17 12  2  0  0  0  0
 18  9  2  0  0  0  0
 19  4  1  0  0  0  0
 20 16  1  0  0  0  0
 20 21  2  0  0  0  0
 21 17  1  0  0  0  0
 22 14  2  0  0  0  0
 23 14  1  0  0  0  0
 24 26  1  0  0  0  0
 25 22  1  0  0  0  0
 25 24  2  0  0  0  0
 26 23  2  0  0  0  0
 27 10  1  0  0  0  0
 28 27  1  0  0  0  0
 29 28  1  0  0  0  0
M  END
>  <ID>
6648983

>  <Supplier>
ChemBridge

>  <clogP>
3.640000000000000e+000

>  <RB>
4

>  <tPSA>
1.271600000000000e+002

>  <Hacc>
6

>  <Hdon>
2

>  <LogSw>
-4.412000000000000e+000

>  <Group>
2

>  <Core>
092

$$$$
6648980
 OpenBabel03312015312D

 18 19  0  0  0  0  0  0  0  0999 V2000
    1.8542    0.2833    0.0000 C   0  0  0  0  0  0  0  0  0  0  0  0
    2.5667    0.6958    0.0000 O   0  0  0  0  0  0  0  0  0  0  0  0
    1.8500   -0.5417    0.0000 O   0  0  0  0  0  0  0  0  0  0  0  0
    0.4292    0.2750    0.0000 O   0  0  0  0  0  0  0  0  0  0  0  0
    1.1417    0.6958    0.0000 C   0  0  0  0  0  0  0  0  0  0  0  0
   -0.2875    0.6875    0.0000 C   0  0  0  0  0  0  0  0  0  0  0  0
   -1.7208    1.5125    0.0000 C   0  0  0  0  0  0  0  0  0  0  0  0
    3.2792    0.2833    0.0000 C   0  0  0  0  0  0  0  0  0  0  0  0
   -2.4333    1.9250    0.0000 F   0  0  0  0  0  0  0  0  0  0  0  0
   -0.2875    1.5208    0.0000 C   0  0  0  0  0  0  0  0  0  0  0  0
   -1.0083    0.2750    0.0000 C   0  0  0  0  0  0  0  0  0  0  0  0
   -1.0083    1.9333    0.0000 C   0  0  0  0  0  0  0  0  0  0  0  0
   -1.7208    0.6875    0.0000 C   0  0  0  0  0  0  0  0  0  0  0  0
    3.2792   -0.5417    0.0000 C   0  0  0  0  0  0  0  0  0  0  0  0
    3.9917    0.6958    0.0000 C   0  0  0  0  0  0  0  0  0  0  0  0
    4.7042    0.2833    0.0000 C   0  0  0  0  0  0  0  0  0  0  0  0
    3.9917   -0.9542    0.0000 C   0  0  0  0  0  0  0  0  0  0  0  0
    4.7042   -0.5417    0.0000 C   0  0  0  0  0  0  0  0  0  0  0  0
  2  1  1  0  0  0  0
  3  1  2  0  0  0  0
  4  5  1  0  0  0  0
  5  1  1  0  0  0  0
  6  4  1  0  0  0  0
  7 13  2  0  0  0  0
  7 12  1  0  0  0  0
  8  2  1  0  0  0  0
  9  7  1  0  0  0  0
 10  6  1  0  0  0  0
 11  6  2  0  0  0  0
 12 10  2  0  0  0  0
 13 11  1  0  0  0  0
 14  8  2  0  0  0  0
 15  8  1  0  0  0  0
 16 15  2  0  0  0  0
 17 14  1  0  0  0  0
 18 16  1  0  0  0  0
 18 17  2  0  0  0  0
M  END
>  <ID>
6648980

>  <Supplier>
ChemBridge

>  <clogP>
3.210000000000000e+000

>  <RB>
5

>  <tPSA>
3.553000000000000e+001

>  <Hacc>
3

>  <Hdon>
0

>  <LogSw>
-3.738000000000000e+000

>  <Group>
2

>  <Core>
314

$$$$
9106787
 OpenBabel03312015312D

 25 28  0  0  0  0  0  0  0  0999 V2000
    2.6417    2.3583    0.0000 C   0  0  0  0  0  0  0  0  0  0  0  0
    2.6417    1.6083    0.0000 C   0  0  0  0  0  0  0  0  0  0  0  0
    3.8000    1.9833    0.0000 C   0  0  0  0  0  0  0  0  0  0  0  0
    3.3542    2.5875    0.0000 N   0  0  0  0  0  0  0  0  0  0  0  0
    3.3542    1.3750    0.0000 N   0  0  0  0  0  0  0  0  0  0  0  0
    1.9917    1.2333    0.0000 N   0  0  0  0  0  0  0  0  0  0  0  0
    1.3417    2.3583    0.0000 N   0  0  0  0  0  0  0  0  0  0  0  0
    1.3417    1.6083    0.0000 C   0  0  0  0  0  0  0  0  0  0  0  0
    1.9917    2.7333    0.0000 C   0  0  0  0  0  0  0  0  0  0  0  0
    4.5125    2.2125    0.0000 N   0  0  0  0  0  0  0  0  0  0  0  0
    3.8000    3.1958    0.0000 C   0  0  0  0  0  0  0  0  0  0  0  0
    4.5125    2.9625    0.0000 C   0  0  0  0  0  0  0  0  0  0  0  0
    5.1167    1.7708    0.0000 C   0  0  0  0  0  0  0  0  0  0  0  0
    0.6917    1.2333    0.0000 O   0  0  0  0  0  0  0  0  0  0  0  0
    1.9917    3.4833    0.0000 O   0  0  0  0  0  0  0  0  0  0  0  0
    0.6917    2.7333    0.0000 C   0  0  0  0  0  0  0  0  0  0  0  0
    1.9917    0.4833    0.0000 C   0  0  0  0  0  0  0  0  0  0  0  0
    5.0417    1.0250    0.0000 C   0  0  0  0  0  0  0  0  0  0  0  0
    5.8042    2.0833    0.0000 C   0  0  0  0  0  0  0  0  0  0  0  0
    5.1167    3.4083    0.0000 C   0  0  0  0  0  0  0  0  0  0  0  0
    6.3292    0.8958    0.0000 C   0  0  0  0  0  0  0  0  0  0  0  0
    6.4125    1.6375    0.0000 C   0  0  0  0  0  0  0  0  0  0  0  0
    5.6417    0.5833    0.0000 C   0  0  0  0  0  0  0  0  0  0  0  0
    6.9375    0.4500    0.0000 O   0  0  0  0  0  0  0  0  0  0  0  0
    0.6917    3.4833    0.0000 C   0  0  0  0  0  0  0  0  0  0  0  0
  2  1  2  0  0  0  0
  3  4  1  0  0  0  0
  3  5  2  0  0  0  0
  4  1  1  0  0  0  0
  5  2  1  0  0  0  0
  6  2  1  0  0  0  0
  7  9  1  0  0  0  0
  8  7  1  0  0  0  0
  8  6  1  0  0  0  0
  9  1  1  0  0  0  0
 10  3  1  0  0  0  0
 11  4  1  0  0  0  0
 12 11  2  0  0  0  0
 12 10  1  0  0  0  0
 13 10  1  0  0  0  0
 14  8  2  0  0  0  0
 15  9  2  0  0  0  0
 16  7  1  0  0  0  0
 17  6  1  0  0  0  0
 18 13  2  0  0  0  0
 19 13  1  0  0  0  0
 20 12  1  0  0  0  0
 21 22  1  0  0  0  0
 21 23  2  0  0  0  0
 22 19  2  0  0  0  0
 23 18  1  0  0  0  0
 24 21  1  0  0  0  0
 25 16  1  0  0  0  0
M  END
>  <ID>
9106787

>  <Supplier>
ChemBridge

>  <clogP>
2.676000000000000e+000

>  <RB>
1

>  <tPSA>
8.646000000000001e+001

>  <Hacc>
4

>  <Hdon>
1

>  <LogSw>
-3.371999999999999e+000

>  <Group>
2

>  <Core>
131

$$$$
9049366
 OpenBabel03312015312D

 23 25  0  0  0  0  0  0  0  0999 V2000
    3.0167    1.8583    0.0000 N   0  0  0  0  0  0  0  0  0  0  0  0
    2.5792    1.2500    0.0000 C   0  0  0  0  0  0  0  0  0  0  0  0
    3.0167    0.6458    0.0000 N   0  0  0  0  0  0  0  0  0  0  0  0
    3.7292    1.6250    0.0000 C   0  0  0  0  0  0  0  0  0  0  0  0
    3.7292    0.8750    0.0000 N   0  0  0  0  0  0  0  0  0  0  0  0
    4.3417    2.0708    0.0000 S   0  0  0  0  0  0  0  0  0  0  0  0
    1.8292    1.2500    0.0000 C   0  0  0  0  0  0  0  0  0  0  0  0
    5.6292    2.2083    0.0000 C   0  0  0  0  0  0  0  0  0  0  0  0
    6.3167    1.8958    0.0000 N   0  0  0  0  0  0  0  0  0  0  0  0
    1.4542    1.9000    0.0000 N   0  0  0  0  0  0  0  0  0  0  0  0
    5.5542    2.9458    0.0000 O   0  0  0  0  0  0  0  0  0  0  0  0
    5.0250    1.7583    0.0000 C   0  0  0  0  0  0  0  0  0  0  0  0
    2.7875    2.5708    0.0000 C   0  0  0  0  0  0  0  0  0  0  0  0
    6.9250    2.3375    0.0000 C   0  0  0  0  0  0  0  0  0  0  0  0
    0.7042    1.9000    0.0000 C   0  0  0  0  0  0  0  0  0  0  0  0
    1.4542    0.6000    0.0000 C   0  0  0  0  0  0  0  0  0  0  0  0
    7.6042    2.0333    0.0000 C   0  0  0  0  0  0  0  0  0  0  0  0
    6.8417    3.0833    0.0000 C   0  0  0  0  0  0  0  0  0  0  0  0
    0.3292    1.2500    0.0000 C   0  0  0  0  0  0  0  0  0  0  0  0
    0.7042    0.6000    0.0000 C   0  0  0  0  0  0  0  0  0  0  0  0
    7.4542    3.5250    0.0000 C   0  0  0  0  0  0  0  0  0  0  0  0
    8.2167    2.4708    0.0000 C   0  0  0  0  0  0  0  0  0  0  0  0
    8.1375    3.2208    0.0000 C   0  0  0  0  0  0  0  0  0  0  0  0
  2  1  1  0  0  0  0
  3  2  2  0  0  0  0
  3  5  1  0  0  0  0
  4  1  1  0  0  0  0
  5  4  2  0  0  0  0
  6  4  1  0  0  0  0
  7  2  1  0  0  0  0
  8 12  1  0  0  0  0
  9  8  1  0  0  0  0
 10  7  1  0  0  0  0
 11  8  2  0  0  0  0
 12  6  1  0  0  0  0
 13  1  1  0  0  0  0
 14  9  1  0  0  0  0
 15 10  2  0  0  0  0
 15 19  1  0  0  0  0
 16  7  2  0  0  0  0
 17 14  1  0  0  0  0
 18 14  2  0  0  0  0
 19 20  2  0  0  0  0
 20 16  1  0  0  0  0
 21 18  1  0  0  0  0
 22 17  2  0  0  0  0
 22 23  1  0  0  0  0
 23 21  2  0  0  0  0
M  END
>  <ID>
9049366

>  <Supplier>
ChemBridge

>  <clogP>
1.049000000000000e+000

>  <RB>
5

>  <tPSA>
7.270000000000000e+001

>  <Hacc>
4

>  <Hdon>
1

>  <LogSw>
-3.085000000000000e+000

>  <Group>
3

>  <Core>
009

$$$$
5813337
 OpenBabel03312015312D

 23 25  0  0  0  0  0  0  0  0999 V2000
    2.1042   -1.9542    0.0000 N   0  0  0  0  0  0  0  0  0  0  0  0
    1.4917   -1.5125    0.0000 C   0  0  0  0  0  0  0  0  0  0  0  0
    1.7292   -0.8000    0.0000 N   0  0  0  0  0  0  0  0  0  0  0  0
    2.7042   -1.5125    0.0000 C   0  0  0  0  0  0  0  0  0  0  0  0
    2.4792   -0.8000    0.0000 O   0  0  0  0  0  0  0  0  0  0  0  0
    0.7792   -1.7417    0.0000 C   0  0  0  0  0  0  0  0  0  0  0  0
    6.8292   -2.1792    0.0000 C   0  0  0  0  0  0  0  0  0  0  0  0
    6.1167   -1.9500    0.0000 C   0  0  0  0  0  0  0  0  0  0  0  0
   -0.4875   -1.4792    0.0000 N   0  0  0  0  0  0  0  0  0  0  0  0
    3.4167   -1.7417    0.0000 C   0  0  0  0  0  0  0  0  0  0  0  0
    5.5542   -2.4500    0.0000 C   0  0  0  0  0  0  0  0  0  0  0  0
    5.9625   -1.2167    0.0000 C   0  0  0  0  0  0  0  0  0  0  0  0
    3.9792   -1.2417    0.0000 O   0  0  0  0  0  0  0  0  0  0  0  0
    4.6917   -1.4792    0.0000 C   0  0  0  0  0  0  0  0  0  0  0  0
    0.2250   -1.2417    0.0000 C   0  0  0  0  0  0  0  0  0  0  0  0
    5.2500   -0.9792    0.0000 C   0  0  0  0  0  0  0  0  0  0  0  0
    4.8417   -2.2167    0.0000 C   0  0  0  0  0  0  0  0  0  0  0  0
    0.6250   -2.4792    0.0000 C   0  0  0  0  0  0  0  0  0  0  0  0
    7.3292   -2.7417    0.0000 C   0  0  0  0  0  0  0  0  0  0  0  0
    6.9792   -2.9167    0.0000 C   0  0  0  0  0  0  0  0  0  0  0  0
    7.3875   -1.6792    0.0000 C   0  0  0  0  0  0  0  0  0  0  0  0
   -0.6458   -2.2125    0.0000 C   0  0  0  0  0  0  0  0  0  0  0  0
   -0.0875   -2.7125    0.0000 C   0  0  0  0  0  0  0  0  0  0  0  0
  2  1  1  0  0  0  0
  3  2  2  0  0  0  0
  4  1  2  0  0  0  0
  5  4  1  0  0  0  0
  5  3  1  0  0  0  0
  6  2  1  0  0  0  0
  7  8  1  0  0  0  0
  8 11  1  0  0  0  0
  9 15  2  0  0  0  0
 10  4  1  0  0  0  0
 11 17  2  0  0  0  0
 12 16  1  0  0  0  0
 12  8  2  0  0  0  0
 13 10  1  0  0  0  0
 14 13  1  0  0  0  0
 15  6  1  0  0  0  0
 16 14  2  0  0  0  0
 17 14  1  0  0  0  0
 18  6  2  0  0  0  0
 19  7  1  0  0  0  0
 20  7  1  0  0  0  0
 21  7  1  0  0  0  0
 22 23  2  0  0  0  0
 22  9  1  0  0  0  0
 23 18  1  0  0  0  0
M  END
>  <ID>
5813337

>  <Supplier>
ChemBridge

>  <clogP>
3.660000000000000e+000

>  <RB>
5

>  <tPSA>
6.103999999999999e+001

>  <Hacc>
5

>  <Hdon>
0

>  <LogSw>
-4.582000000000000e+000

>  <Group>
3

>  <Core>
201

$$$$
6046587
 OpenBabel03312015312D

 21 21  0  0  0  0  0  0  0  0999 V2000
   -1.7333    0.0625    0.0000 C   0  0  0  0  0  0  0  0  0  0  0  0
   -2.6958    0.6000    0.0000 C   0  0  0  0  0  0  0  0  0  0  0  0
   -1.7333   -1.0792    0.0000 C   0  0  0  0  0  0  0  0  0  0  0  0
   -2.6958   -1.6500    0.0000 O   0  0  0  0  0  0  0  0  0  0  0  0
   -3.6708    0.0333    0.0000 O   0  0  0  0  0  0  0  0  0  0  0  0
   -3.6708   -1.0792    0.0000 C   0  0  0  0  0  0  0  0  0  0  0  0
   -0.7500    0.6333    0.0000 C   0  0  0  0  0  0  0  0  0  0  0  0
    0.2500    0.0625    0.0000 N   0  0  0  0  0  0  0  0  0  0  0  0
    1.2292    1.7458    0.0000 C   0  0  0  0  0  0  0  0  0  0  0  0
    4.1500    0.0958    0.0000 C   0  0  0  0  0  0  0  0  0  0  0  0
   -0.7500   -1.6792    0.0000 O   0  0  0  0  0  0  0  0  0  0  0  0
   -2.6958    1.7458    0.0000 O   0  0  0  0  0  0  0  0  0  0  0  0
    1.2292    0.6333    0.0000 C   0  0  3  0  0  0  0  0  0  0  0  0
    0.2500    2.3125    0.0000 O   0  0  0  0  0  0  0  0  0  0  0  0
    5.1292    0.6625    0.0000 O   0  0  0  0  0  0  0  0  0  0  0  0
    2.1875    0.0625    0.0000 C   0  0  0  0  0  0  0  0  0  0  0  0
    3.1667    0.6333    0.0000 C   0  0  0  0  0  0  0  0  0  0  0  0
    2.2042    2.3125    0.0000 O   0  0  0  0  0  0  0  0  0  0  0  0
    4.1500   -1.0500    0.0000 O   0  0  0  0  0  0  0  0  0  0  0  0
   -3.3958   -2.1542    0.0000 C   0  0  0  0  0  0  0  0  0  0  0  0
   -4.7958   -1.2542    0.0000 C   0  0  0  0  0  0  0  0  0  0  0  0
  2  1  1  0  0  0  0
  3  1  1  0  0  0  0
  4  3  1  0  0  0  0
  5  2  1  0  0  0  0
  5  6  1  0  0  0  0
  6  4  1  0  0  0  0
  7  1  2  0  0  0  0
  8  7  1  0  0  0  0
  9 13  1  0  0  0  0
 10 17  1  0  0  0  0
 11  3  2  0  0  0  0
 12  2  2  0  0  0  0
 13  8  1  0  0  0  0
 14  9  2  0  0  0  0
 15 10  2  0  0  0  0
 16 13  1  0  0  0  0
 17 16  1  0  0  0  0
 18  9  1  0  0  0  0
 19 10  1  0  0  0  0
 20  6  1  0  0  0  0
 21  6  1  0  0  0  0
M  END
>  <ID>
6046587

>  <Supplier>
ChemBridge

>  <clogP>
-3.050000000000000e+000

>  <RB>
6

>  <tPSA>
1.392300000000000e+002

>  <Hacc>
8

>  <Hdon>
3

>  <LogSw>
-8.620000000000001e-001

>  <Group>
3

>  <Core>
377

$$$$
7940186
 OpenBabel03312015312D

 31 33  0  0  0  0  0  0  0  0999 V2000
    8.6500    1.6750    0.0000 S   0  0  0  0  0  0  0  0  0  0  0  0
    7.9250    1.8708    0.0000 C   0  0  0  0  0  0  0  0  0  0  0  0
    7.3917    1.3375    0.0000 C   0  0  0  0  0  0  0  0  0  0  0  0
    7.7292    2.5958    0.0000 C   0  0  0  0  0  0  0  0  0  0  0  0
    7.5375    3.3208    0.0000 N   0  0  0  0  0  0  0  0  0  0  0  0
    9.0250    2.3333    0.0000 C   0  0  0  0  0  0  0  0  0  0  0  0
    8.3917    0.9708    0.0000 O   0  0  0  0  0  0  0  0  0  0  0  0
    9.3292    1.3583    0.0000 O   0  0  0  0  0  0  0  0  0  0  0  0
    5.7500    2.4583    0.0000 C   0  0  0  0  0  0  0  0  0  0  0  0
    5.2167    1.9208    0.0000 C   0  0  0  0  0  0  0  0  0  0  0  0
    6.6667    1.5333    0.0000 C   0  0  0  0  0  0  0  0  0  0  0  0
    6.4750    2.2583    0.0000 C   0  0  0  0  0  0  0  0  0  0  0  0
    4.4917    2.1208    0.0000 O   0  0  0  0  0  0  0  0  0  0  0  0
    9.7750    2.3333    0.0000 C   0  0  0  0  0  0  0  0  0  0  0  0
    8.6500    2.9833    0.0000 C   0  0  0  0  0  0  0  0  0  0  0  0
    5.4167    1.1958    0.0000 C   0  0  0  0  0  0  0  0  0  0  0  0
    6.1417    1.0083    0.0000 C   0  0  0  0  0  0  0  0  0  0  0  0
    3.9667    1.5875    0.0000 C   0  0  0  0  0  0  0  0  0  0  0  0
    1.7917    2.1708    0.0000 C   0  0  0  0  0  0  0  0  0  0  0  0
    3.2417    1.7833    0.0000 C   0  0  0  0  0  0  0  0  0  0  0  0
    5.5542    3.1750    0.0000 O   0  0  0  0  0  0  0  0  0  0  0  0
   10.1417    2.9833    0.0000 C   0  0  0  0  0  0  0  0  0  0  0  0
    9.0250    3.6250    0.0000 C   0  0  0  0  0  0  0  0  0  0  0  0
    9.7750    3.6250    0.0000 C   0  0  0  0  0  0  0  0  0  0  0  0
    1.0667    2.3625    0.0000 Cl  0  0  0  0  0  0  0  0  0  0  0  0
    1.9875    1.4458    0.0000 C   0  0  0  0  0  0  0  0  0  0  0  0
    2.3167    2.7083    0.0000 C   0  0  0  0  0  0  0  0  0  0  0  0
    2.7125    1.2500    0.0000 C   0  0  0  0  0  0  0  0  0  0  0  0
    3.0500    2.5083    0.0000 C   0  0  0  0  0  0  0  0  0  0  0  0
   10.1417    4.2667    0.0000 C   0  0  0  0  0  0  0  0  0  0  0  0
    6.0875    3.7083    0.0000 C   0  0  0  0  0  0  0  0  0  0  0  0
  2  1  1  0  0  0  0
  3  2  2  0  0  0  0
  4  2  1  0  0  0  0
  5  4  3  0  0  0  0
  6  1  1  0  0  0  0
  7  1  2  0  0  0  0
  8  1  2  0  0  0  0
  9 12  1  0  0  0  0
 10 16  1  0  0  0  0
 10  9  2  0  0  0  0
 11  3  1  0  0  0  0
 12 11  2  0  0  0  0
 13 10  1  0  0  0  0
 14  6  1  0  0  0  0
 15  6  2  0  0  0  0
 16 17  2  0  0  0  0
 17 11  1  0  0  0  0
 18 13  1  0  0  0  0
 19 27  2  0  0  0  0
 20 18  1  0  0  0  0
 21  9  1  0  0  0  0
 22 14  2  0  0  0  0
 22 24  1  0  0  0  0
 23 15  1  0  0  0  0
 24 23  2  0  0  0  0
 25 19  1  0  0  0  0
 26 28  2  0  0  0  0
 26 19  1  0  0  0  0
 27 29  1  0  0  0  0
 28 20  1  0  0  0  0
 29 20  2  0  0  0  0
 30 24  1  0  0  0  0
 31 21  1  0  0  0  0
M  END
>  <ID>
7940186

>  <Supplier>
ChemBridge

>  <clogP>
5.005000000000000e+000

>  <RB>
6

>  <tPSA>
7.639000000000000e+001

>  <Hacc>
5

>  <Hdon>
0

>  <LogSw>
-7.048000000000000e+000

>  <Group>
1

>  <Core>
383

$$$$
7940184
 OpenBabel03312015312D

 27 29  0  0  0  0  0  0  0  0999 V2000
    5.7542    3.1833    0.0000 S   0  0  0  0  0  0  0  0  0  0  0  0
    4.4625    4.6667    0.0000 C   0  0  0  0  0  0  0  0  0  0  0  0
    5.1042    3.5583    0.0000 N   0  0  0  0  0  0  0  0  0  0  0  0
    3.8125    5.7917    0.0000 N   0  0  0  0  0  0  0  0  0  0  0  0
    4.4625    5.4167    0.0000 C   0  0  0  0  0  0  0  0  0  0  0  0
    5.1042    4.2917    0.0000 C   0  0  0  0  0  0  0  0  0  0  0  0
    3.1625    5.4167    0.0000 C   0  0  0  0  0  0  0  0  0  0  0  0
    3.8125    4.2917    0.0000 C   0  0  0  0  0  0  0  0  0  0  0  0
    3.1625    4.6667    0.0000 C   0  0  0  0  0  0  0  0  0  0  0  0
    6.2917    3.7083    0.0000 O   0  0  0  0  0  0  0  0  0  0  0  0
    5.3292    2.5625    0.0000 O   0  0  0  0  0  0  0  0  0  0  0  0
    4.4625    3.1833    0.0000 C   0  0  0  0  0  0  0  0  0  0  0  0
    2.5042    5.7917    0.0000 C   0  0  0  0  0  0  0  0  0  0  0  0
    2.5042    4.2917    0.0000 C   0  0  0  0  0  0  0  0  0  0  0  0
    3.8125    3.5583    0.0000 C   0  0  0  0  0  0  0  0  0  0  0  0
    4.4625    2.4333    0.0000 C   0  0  0  0  0  0  0  0  0  0  0  0
    6.3292    2.6958    0.0000 C   0  0  0  0  0  0  0  0  0  0  0  0
    5.1042    5.7917    0.0000 O   0  0  0  0  0  0  0  0  0  0  0  0
    1.8625    5.4167    0.0000 C   0  0  0  0  0  0  0  0  0  0  0  0
    3.1625    2.4333    0.0000 C   0  0  0  0  0  0  0  0  0  0  0  0
    1.8625    4.6667    0.0000 C   0  0  0  0  0  0  0  0  0  0  0  0
    3.1625    3.1833    0.0000 C   0  0  0  0  0  0  0  0  0  0  0  0
    3.8125    2.0583    0.0000 C   0  0  0  0  0  0  0  0  0  0  0  0
    2.5042    2.0583    0.0000 O   0  0  0  0  0  0  0  0  0  0  0  0
    1.2125    5.7917    0.0000 C   0  0  0  0  0  0  0  0  0  0  0  0
    2.5042    1.3083    0.0000 C   0  0  0  0  0  0  0  0  0  0  0  0
    1.8625    0.9333    0.0000 C   0  0  0  0  0  0  0  0  0  0  0  0
  2  6  1  0  0  0  0
  3  1  1  0  0  0  0
  4  5  2  0  0  0  0
  4  7  1  0  0  0  0
  5  2  1  0  0  0  0
  6  3  1  0  0  0  0
  7  9  2  0  0  0  0
  8  2  2  0  0  0  0
  9  8  1  0  0  0  0
 10  1  2  0  0  0  0
 11  1  2  0  0  0  0
 12  3  1  0  0  0  0
 13  7  1  0  0  0  0
 13 19  2  0  0  0  0
 14  9  1  0  0  0  0
 15 12  1  0  0  0  0
 16 12  2  0  0  0  0
 17  1  1  0  0  0  0
 18  5  1  0  0  0  0
 19 21  1  0  0  0  0
 20 23  2  0  0  0  0
 20 22  1  0  0  0  0
 21 14  2  0  0  0  0
 22 15  2  0  0  0  0
 23 16  1  0  0  0  0
 24 20  1  0  0  0  0
 25 19  1  0  0  0  0
 26 24  1  0  0  0  0
 27 26  1  0  0  0  0
M  END
>  <ID>
7940184

>  <Supplier>
ChemBridge

>  <clogP>
3.960000000000000e+000

>  <RB>
3

>  <tPSA>
7.973000000000000e+001

>  <Hacc>
5

>  <Hdon>
1

>  <LogSw>
-5.399000000000000e+000

>  <Group>
2

$$$$
7131670
 OpenBabel03312015312D

 27 30  0  0  0  0  0  0  0  0999 V2000
   -0.7833    1.2958    0.0000 N   0  0  0  0  0  0  0  0  0  0  0  0
   -0.5333    0.5083    0.0000 C   0  0  0  0  0  0  0  0  0  0  0  0
   -0.1208    1.7750    0.0000 C   0  0  0  0  0  0  0  0  0  0  0  0
    0.5500    1.2958    0.0000 C   0  0  0  0  0  0  0  0  0  0  0  0
    0.2917    0.5083    0.0000 N   0  0  0  0  0  0  0  0  0  0  0  0
    1.3375    1.5458    0.0000 C   0  0  0  0  0  0  0  0  0  0  0  0
    1.5042    2.3500    0.0000 C   0  0  0  0  0  0  0  0  0  0  0  0
    2.4625    3.4083    0.0000 C   0  0  0  0  0  0  0  0  0  0  0  0
    1.8542    3.9625    0.0000 C   0  0  0  0  0  0  0  0  0  0  0  0
    1.0667    3.7083    0.0000 C   0  0  0  0  0  0  0  0  0  0  0  0
   -1.5708    1.5458    0.0000 C   0  0  0  0  0  0  0  0  0  0  0  0
    2.2917    2.6000    0.0000 C   0  0  0  0  0  0  0  0  0  0  0  0
    0.8917    2.9000    0.0000 C   0  0  0  0  0  0  0  0  0  0  0  0
   -1.0208   -0.1542    0.0000 O   0  0  0  0  0  0  0  0  0  0  0  0
    1.8500    4.7792    0.0000 O   0  0  0  0  0  0  0  0  0  0  0  0
    0.5792    4.3667    0.0000 O   0  0  0  0  0  0  0  0  0  0  0  0
   -0.1208    2.6000    0.0000 O   0  0  0  0  0  0  0  0  0  0  0  0
    1.0625    5.0292    0.0000 C   0  0  0  0  0  0  0  0  0  0  0  0
   -1.7458    2.3500    0.0000 C   0  0  0  0  0  0  0  0  0  0  0  0
   -2.0750    3.9708    0.0000 C   0  0  0  0  0  0  0  0  0  0  0  0
    2.9000    2.0500    0.0000 O   0  0  0  0  0  0  0  0  0  0  0  0
   -2.2500    4.7750    0.0000 F   0  0  0  0  0  0  0  0  0  0  0  0
   -1.1250    2.9083    0.0000 C   0  0  0  0  0  0  0  0  0  0  0  0
   -2.5208    2.6083    0.0000 C   0  0  0  0  0  0  0  0  0  0  0  0
   -1.2958    3.7125    0.0000 C   0  0  0  0  0  0  0  0  0  0  0  0
   -2.6958    3.4208    0.0000 C   0  0  0  0  0  0  0  0  0  0  0  0
    3.6875    2.3000    0.0000 C   0  0  0  0  0  0  0  0  0  0  0  0
  2  1  1  0  0  0  0
  3  1  1  0  0  0  0
  4  3  1  0  0  0  0
  5  2  1  0  0  0  0
  5  4  1  0  0  0  0
  6  4  2  0  0  0  0
  7  6  1  0  0  0  0
  8 12  1  0  0  0  0
  8  9  2  0  0  0  0
  9 10  1  0  0  0  0
 10 13  2  0  0  0  0
 11  1  1  0  0  0  0
 12  7  2  0  0  0  0
 13  7  1  0  0  0  0
 14  2  2  0  0  0  0
 15  9  1  0  0  0  0
 15 18  1  0  0  0  0
 16 10  1  0  0  0  0
 17  3  2  0  0  0  0
 18 16  1  0  0  0  0
 19 11  1  0  0  0  0
 20 26  1  0  0  0  0
 21 12  1  0  0  0  0
 22 20  1  0  0  0  0
 23 19  2  0  0  0  0
 24 19  1  0  0  0  0
 25 23  1  0  0  0  0
 25 20  2  0  0  0  0
 26 24  2  0  0  0  0
 27 21  1  0  0  0  0
M  END
>  <ID>
7131670

>  <Supplier>
ChemBridge

>  <clogP>
2.330000000000000e+000

>  <RB>
3

>  <tPSA>
7.709999999999999e+001

>  <Hacc>
5

>  <Hdon>
1

>  <LogSw>
-3.890000000000000e+000

>  <Group>
1

>  <Core>
003

$$$$
9062744
 OpenBabel03312015312D

 24 26  0  0  0  0  0  0  0  0999 V2000
    2.6125    1.1458    0.0000 C   0  0  0  0  0  0  0  0  0  0  0  0
    3.0542    0.5375    0.0000 N   0  0  0  0  0  0  0  0  0  0  0  0
    3.0542    1.7500    0.0000 N   0  0  0  0  0  0  0  0  0  0  0  0
    3.7667    0.7708    0.0000 N   0  0  0  0  0  0  0  0  0  0  0  0
    3.7667    1.5208    0.0000 N   0  0  0  0  0  0  0  0  0  0  0  0
    4.3750    0.3333    0.0000 C   0  0  0  0  0  0  0  0  0  0  0  0
    1.8625    1.1458    0.0000 C   0  0  0  0  0  0  0  0  0  0  0  0
    5.0625    0.6333    0.0000 C   0  0  0  0  0  0  0  0  0  0  0  0
    7.6417    0.3625    0.0000 C   0  0  0  0  0  0  0  0  0  0  0  0
    1.4875    1.7958    0.0000 C   0  0  0  0  0  0  0  0  0  0  0  0
    5.1375    1.3833    0.0000 O   0  0  0  0  0  0  0  0  0  0  0  0
    8.2500   -0.0792    0.0000 C   0  0  0  0  0  0  0  0  0  0  0  0
    5.6667    0.1958    0.0000 N   0  0  0  0  0  0  0  0  0  0  0  0
    6.3542    0.4958    0.0000 C   0  0  0  0  0  0  0  0  0  0  0  0
    6.9542    0.0583    0.0000 C   0  0  0  0  0  0  0  0  0  0  0  0
    1.4875    0.4958    0.0000 C   0  0  0  0  0  0  0  0  0  0  0  0
    7.7167    1.1083    0.0000 C   0  0  0  0  0  0  0  0  0  0  0  0
    1.8625    2.4458    0.0000 C   0  0  0  0  0  0  0  0  0  0  0  0
    0.7375    1.7958    0.0000 C   0  0  0  0  0  0  0  0  0  0  0  0
    8.9375    0.2250    0.0000 C   0  0  0  0  0  0  0  0  0  0  0  0
    0.7375    0.4958    0.0000 C   0  0  0  0  0  0  0  0  0  0  0  0
    8.4042    1.4125    0.0000 C   0  0  0  0  0  0  0  0  0  0  0  0
    9.0125    0.9708    0.0000 C   0  0  0  0  0  0  0  0  0  0  0  0
    0.3625    1.1458    0.0000 C   0  0  0  0  0  0  0  0  0  0  0  0
  2  1  2  0  0  0  0
  3  1  1  0  0  0  0
  4  2  1  0  0  0  0
  5  3  2  0  0  0  0
  5  4  1  0  0  0  0
  6  4  1  0  0  0  0
  7  1  1  0  0  0  0
  8  6  1  0  0  0  0
  9 15  1  0  0  0  0
 10  7  2  0  0  0  0
 11  8  2  0  0  0  0
 12  9  2  0  0  0  0
 13  8  1  0  0  0  0
 14 13  1  0  0  0  0
 15 14  1  0  0  0  0
 16  7  1  0  0  0  0
 17  9  1  0  0  0  0
 18 10  1  0  0  0  0
 19 10  1  0  0  0  0
 20 12  1  0  0  0  0
 21 16  2  0  0  0  0
 22 17  1  0  0  0  0
 23 22  1  0  0  0  0
 23 20  1  0  0  0  0
 24 21  1  0  0  0  0
 24 19  2  0  0  0  0
M  END
>  <ID>
9062744

>  <Supplier>
ChemBridge

>  <clogP>
3.669000000000000e+000

>  <RB>
6

>  <tPSA>
7.270000000000000e+001

>  <Hacc>
4

>  <Hdon>
1

>  <LogSw>
-4.592000000000000e+000

>  <Group>
1

>  <Core>
348

$$$$
7940180
 OpenBabel03312015312D

 35 40  0  0  0  0  0  0  0  0999 V2000
    2.5167    1.4375    0.0000 N   0  0  0  0  0  0  0  0  0  0  0  0
    2.8250    2.1250    0.0000 C   0  0  0  0  0  0  0  0  0  0  0  0
    1.7750    1.5208    0.0000 C   0  0  0  0  0  0  0  0  0  0  0  0
    1.6167    3.7500    0.0000 C   0  0  3  0  0  0  0  0  0  0  0  0
    0.9667    3.3750    0.0000 C   0  0  3  0  0  0  0  0  0  0  0  0
    2.8917    0.7958    0.0000 N   0  0  0  0  0  0  0  0  0  0  0  0
    2.2667    2.6250    0.0000 C   0  0  3  0  0  0  0  0  0  0  0  0
    1.6167    2.2500    0.0000 C   0  0  3  0  0  0  0  0  0  0  0  0
    1.6167    3.0000    0.0000 C   0  0  3  0  0  0  0  0  0  0  0  0
    0.9667    2.6250    0.0000 C   0  0  3  0  0  0  0  0  0  0  0  0
    0.9667    4.1167    0.0000 C   0  0  0  0  0  0  0  0  0  0  0  0
    2.5167    0.1458    0.0000 C   0  0  0  0  0  0  0  0  0  0  0  0
    3.6417    0.7958    0.0000 C   0  0  0  0  0  0  0  0  0  0  0  0
    0.3167    2.2500    0.0000 C   0  0  0  0  0  0  0  0  0  0  0  0
    0.5125    2.9833    0.0000 C   0  0  0  0  0  0  0  0  0  0  0  0
    4.0167    1.4375    0.0000 C   0  0  0  0  0  0  0  0  0  0  0  0
    1.2667    0.9625    0.0000 O   0  0  0  0  0  0  0  0  0  0  0  0
    3.5542    2.2833    0.0000 O   0  0  0  0  0  0  0  0  0  0  0  0
    2.8917   -0.5042    0.0000 C   0  0  0  0  0  0  0  0  0  0  0  0
    4.7667    1.4375    0.0000 C   0  0  0  0  0  0  0  0  0  0  0  0
    1.7667    0.1458    0.0000 O   0  0  0  0  0  0  0  0  0  0  0  0
    5.1417    2.0875    0.0000 C   0  0  0  0  0  0  0  0  0  0  0  0
    3.7542    1.8958    0.0000 O   0  0  0  0  0  0  0  0  0  0  0  0
    2.5167   -1.1542    0.0000 C   0  0  0  0  0  0  0  0  0  0  0  0
    3.6417   -0.5042    0.0000 C   0  0  0  0  0  0  0  0  0  0  0  0
    3.6417   -1.8042    0.0000 C   0  0  0  0  0  0  0  0  0  0  0  0
    5.8917    2.0875    0.0000 C   0  0  0  0  0  0  0  0  0  0  0  0
    2.8917   -1.8042    0.0000 C   0  0  0  0  0  0  0  0  0  0  0  0
    4.0167   -1.1542    0.0000 C   0  0  0  0  0  0  0  0  0  0  0  0
    4.0167   -2.4542    0.0000 Cl  0  0  0  0  0  0  0  0  0  0  0  0
    6.2667    2.7375    0.0000 O   0  0  0  0  0  0  0  0  0  0  0  0
    5.1417    0.7958    0.0000 C   0  0  0  0  0  0  0  0  0  0  0  0
    5.8917    0.7958    0.0000 C   0  0  0  0  0  0  0  0  0  0  0  0
    6.2667    1.4375    0.0000 C   0  0  0  0  0  0  0  0  0  0  0  0
    7.0167    2.7375    0.0000 C   0  0  0  0  0  0  0  0  0  0  0  0
  2  1  1  0  0  0  0
  3  1  1  0  0  0  0
  4  9  1  0  0  0  0
  4 11  1  0  0  0  0
  5 10  1  0  0  0  0
  5  4  1  0  0  0  0
  6  1  1  0  0  0  0
  7  2  1  0  0  0  0
  7  8  1  0  0  0  0
  8  3  1  0  0  0  0
  9  7  1  0  0  0  0
 10  8  1  0  0  0  0
 11  5  1  0  0  0  0
 12  6  1  0  0  0  0
 13  6  1  0  0  0  0
 14 10  1  0  0  0  0
 15  9  1  0  0  0  0
 15 14  2  0  0  0  0
 16 13  1  0  0  0  0
 17  3  2  0  0  0  0
 18  2  2  0  0  0  0
 19 12  1  0  0  0  0
 20 16  1  0  0  0  0
 21 12  2  0  0  0  0
 22 20  1  0  0  0  0
 23 16  2  0  0  0  0
 24 19  2  0  0  0  0
 25 19  1  0  0  0  0
 26 29  1  0  0  0  0
 27 22  2  0  0  0  0
 27 34  1  0  0  0  0
 28 24  1  0  0  0  0
 28 26  2  0  0  0  0
 29 25  2  0  0  0  0
 30 26  1  0  0  0  0
 31 27  1  0  0  0  0
 32 20  2  0  0  0  0
 33 32  1  0  0  0  0
 34 33  2  0  0  0  0
 35 31  1  0  0  0  0
M  END
>  <ID>
7940180

>  <Supplier>
ChemBridge

>  <clogP>
4.039000000000002e+000

>  <RB>
5

>  <tPSA>
8.399000000000002e+001

>  <Hacc>
5

>  <Hdon>
0

>  <LogSw>
-6.226999999999999e+000

>  <Group>
1

>  <Core>
311

$$$$
7940181
 OpenBabel03312015312D

 29 31  0  0  0  0  0  0  0  0999 V2000
    6.7042    1.7708    0.0000 S   0  0  0  0  0  0  0  0  0  0  0  0
    7.0792    2.4208    0.0000 C   0  0  0  0  0  0  0  0  0  0  0  0
    5.9792    1.9583    0.0000 N   0  0  0  0  0  0  0  0  0  0  0  0
    3.8125    2.5458    0.0000 C   0  0  0  0  0  0  0  0  0  0  0  0
    7.8292    2.4208    0.0000 C   0  0  0  0  0  0  0  0  0  0  0  0
    3.2792    2.0208    0.0000 N   0  0  0  0  0  0  0  0  0  0  0  0
    6.4500    1.0583    0.0000 O   0  0  0  0  0  0  0  0  0  0  0  0
    7.3875    1.4500    0.0000 O   0  0  0  0  0  0  0  0  0  0  0  0
    6.7042    3.0625    0.0000 C   0  0  0  0  0  0  0  0  0  0  0  0
    4.5292    2.3458    0.0000 C   0  0  0  0  0  0  0  0  0  0  0  0
    5.4542    1.4333    0.0000 C   0  0  0  0  0  0  0  0  0  0  0  0
    5.7917    2.6833    0.0000 C   0  0  0  0  0  0  0  0  0  0  0  0
    2.5542    2.2083    0.0000 C   0  0  0  0  0  0  0  0  0  0  0  0
    3.6167    3.2708    0.0000 O   0  0  0  0  0  0  0  0  0  0  0  0
    2.3625    2.9333    0.0000 C   0  0  0  0  0  0  0  0  0  0  0  0
    5.0667    2.8833    0.0000 C   0  0  0  0  0  0  0  0  0  0  0  0
    4.7292    1.6250    0.0000 C   0  0  0  0  0  0  0  0  0  0  0  0
    7.0792    3.7125    0.0000 C   0  0  0  0  0  0  0  0  0  0  0  0
    8.2042    3.0625    0.0000 C   0  0  0  0  0  0  0  0  0  0  0  0
    1.6375    3.1250    0.0000 C   0  0  0  0  0  0  0  0  0  0  0  0
    7.8292    3.7125    0.0000 C   0  0  0  0  0  0  0  0  0  0  0  0
    1.4417    3.8583    0.0000 F   0  0  0  0  0  0  0  0  0  0  0  0
    5.9542    3.0625    0.0000 O   0  0  0  0  0  0  0  0  0  0  0  0
    8.9542    3.0625    0.0000 O   0  0  0  0  0  0  0  0  0  0  0  0
    1.3000    1.8708    0.0000 C   0  0  0  0  0  0  0  0  0  0  0  0
    2.0250    1.6750    0.0000 C   0  0  0  0  0  0  0  0  0  0  0  0
    1.1042    2.5958    0.0000 C   0  0  0  0  0  0  0  0  0  0  0  0
    5.5792    3.7125    0.0000 C   0  0  0  0  0  0  0  0  0  0  0  0
    9.3292    3.7125    0.0000 C   0  0  0  0  0  0  0  0  0  0  0  0
  2  1  1  0  0  0  0
  3  1  1  0  0  0  0
  4 10  1  0  0  0  0
  5  2  1  0  0  0  0
  6  4  1  0  0  0  0
  7  1  2  0  0  0  0
  8  1  2  0  0  0  0
  9  2  2  0  0  0  0
 10 16  1  0  0  0  0
 11  3  1  0  0  0  0
 12  3  1  0  0  0  0
 13  6  1  0  0  0  0
 14  4  2  0  0  0  0
 15 13  2  0  0  0  0
 16 12  1  0  0  0  0
 17 11  1  0  0  0  0
 17 10  1  0  0  0  0
 18  9  1  0  0  0  0
 19  5  2  0  0  0  0
 20 15  1  0  0  0  0
 20 27  2  0  0  0  0
 21 18  2  0  0  0  0
 21 19  1  0  0  0  0
 22 20  1  0  0  0  0
 23  9  1  0  0  0  0
 24 19  1  0  0  0  0
 25 26  2  0  0  0  0
 26 13  1  0  0  0  0
 27 25  1  0  0  0  0
 28 23  1  0  0  0  0
 29 24  1  0  0  0  0
M  END
>  <ID>
7940181

>  <Supplier>
ChemBridge

>  <clogP>
2.511000000000000e+000

>  <RB>
3

>  <tPSA>
8.494000000000000e+001

>  <Hacc>
6

>  <Hdon>
1

>  <LogSw>
-4.424000000000000e+000

>  <Group>
3

>  <Core>
050

$$$$
6046585
 OpenBabel03312015312D

 25 28  0  0  0  0  0  0  0  0999 V2000
    1.5042   -2.7542    0.0000 C   0  0  3  0  0  0  0  0  0  0  0  0
    1.0292   -2.5000    0.0000 C   0  0  3  0  0  0  0  0  0  0  0  0
    1.0292   -1.9792    0.0000 C   0  0  3  0  0  0  0  0  0  0  0  0
    1.9667   -2.5000    0.0000 C   0  0  3  0  0  0  0  0  0  0  0  0
    1.9500   -1.9542    0.0000 C   0  0  3  0  0  0  0  0  0  0  0  0
    1.4875   -1.6792    0.0000 O   0  0  0  0  0  0  0  0  0  0  0  0
    0.5292   -1.7375    0.0000 C   0  0  0  0  0  0  0  0  0  0  0  0
    2.4667   -1.8000    0.0000 O   0  0  0  0  0  0  0  0  0  0  0  0
    2.4667   -2.6542    0.0000 O   0  0  0  0  0  0  0  0  0  0  0  0
    1.4042   -3.2792    0.0000 O   0  0  0  0  0  0  0  0  0  0  0  0
    0.6500   -2.8542    0.0000 O   0  0  0  0  0  0  0  0  0  0  0  0
    2.7667   -2.2167    0.0000 C   0  0  0  0  0  0  0  0  0  0  0  0
    0.8500   -3.3542    0.0000 C   0  0  0  0  0  0  0  0  0  0  0  0
    0.4875   -1.2000    0.0000 N   0  0  0  0  0  0  0  0  0  0  0  0
    0.0875   -2.0375    0.0000 O   0  0  0  0  0  0  0  0  0  0  0  0
    0.0042   -0.9667    0.0000 C   0  0  0  0  0  0  0  0  0  0  0  0
    3.2667   -2.0375    0.0000 C   0  0  0  0  0  0  0  0  0  0  0  0
    2.9667   -2.7167    0.0000 C   0  0  0  0  0  0  0  0  0  0  0  0
    0.3500   -3.5542    0.0000 C   0  0  0  0  0  0  0  0  0  0  0  0
    0.9500   -3.8792    0.0000 C   0  0  0  0  0  0  0  0  0  0  0  0
   -0.0208   -0.4375    0.0000 C   0  0  0  0  0  0  0  0  0  0  0  0
   -0.4333   -1.2667    0.0000 C   0  0  0  0  0  0  0  0  0  0  0  0
   -0.9208   -1.0292    0.0000 C   0  0  0  0  0  0  0  0  0  0  0  0
   -0.5125   -0.1875    0.0000 C   0  0  0  0  0  0  0  0  0  0  0  0
   -0.9625   -0.5000    0.0000 C   0  0  0  0  0  0  0  0  0  0  0  0
  2  1  1  0  0  0  0
  3  2  1  0  0  0  0
  3  6  1  0  0  0  0
  4  1  1  0  0  0  0
  5  4  1  0  0  0  0
  6  5  1  0  0  0  0
  7  3  1  0  0  0  0
  8  5  1  0  0  0  0
  9  4  1  0  0  0  0
 10  1  1  0  0  0  0
 11  2  1  0  0  0  0
 12  9  1  0  0  0  0
 12  8  1  0  0  0  0
 13 10  1  0  0  0  0
 13 11  1  0  0  0  0
 14  7  1  0  0  0  0
 15  7  2  0  0  0  0
 16 14  1  0  0  0  0
 17 12  1  0  0  0  0
 18 12  1  0  0  0  0
 19 13  1  0  0  0  0
 20 13  1  0  0  0  0
 21 16  2  0  0  0  0
 22 16  1  0  0  0  0
 23 22  2  0  0  0  0
 24 21  1  0  0  0  0
 24 25  2  0  0  0  0
 25 23  1  0  0  0  0
M  END
>  <ID>
6046585

>  <Supplier>
ChemBridge

>  <clogP>
2.150000000000000e+000

>  <RB>
2

>  <tPSA>
7.525000000000000e+001

>  <Hacc>
6

>  <Hdon>
1

>  <LogSw>
-3.584000000000000e+000

>  <Group>
3

$$$$
7963467
 OpenBabel03312015312D

 26 28  0  0  0  0  0  0  0  0999 V2000
    5.4792    2.7583    0.0000 C   0  0  0  0  0  0  0  0  0  0  0  0
    4.8000    3.0625    0.0000 N   0  0  0  0  0  0  0  0  0  0  0  0
    5.4042    2.0083    0.0000 N   0  0  0  0  0  0  0  0  0  0  0  0
    4.2917    2.5083    0.0000 C   0  0  0  0  0  0  0  0  0  0  0  0
    2.3625    2.0583    0.0000 C   0  0  0  0  0  0  0  0  0  0  0  0
    3.1042    1.9750    0.0000 N   0  0  0  0  0  0  0  0  0  0  0  0
    6.1292    3.1333    0.0000 C   0  0  0  0  0  0  0  0  0  0  0  0
    4.6667    1.8583    0.0000 O   0  0  0  0  0  0  0  0  0  0  0  0
    3.5500    2.5833    0.0000 C   0  0  0  0  0  0  0  0  0  0  0  0
    2.0542    2.7375    0.0000 C   0  0  0  0  0  0  0  0  0  0  0  0
    6.7792    2.7583    0.0000 C   0  0  0  0  0  0  0  0  0  0  0  0
    1.9250    1.4458    0.0000 O   0  0  0  0  0  0  0  0  0  0  0  0
    3.4167    1.2958    0.0000 C   0  0  0  0  0  0  0  0  0  0  0  0
    2.5000    3.3458    0.0000 C   0  0  0  0  0  0  0  0  0  0  0  0
    1.3125    2.8208    0.0000 C   0  0  0  0  0  0  0  0  0  0  0  0
    1.4500    4.1042    0.0000 C   0  0  0  0  0  0  0  0  0  0  0  0
    6.7792    2.0083    0.0000 Cl  0  0  0  0  0  0  0  0  0  0  0  0
    1.0042    3.5083    0.0000 C   0  0  0  0  0  0  0  0  0  0  0  0
    2.1917    4.0250    0.0000 C   0  0  0  0  0  0  0  0  0  0  0  0
    1.1417    4.7917    0.0000 Br  0  0  0  0  0  0  0  0  0  0  0  0
    6.1292    3.8833    0.0000 C   0  0  0  0  0  0  0  0  0  0  0  0
    7.4292    3.1333    0.0000 C   0  0  0  0  0  0  0  0  0  0  0  0
    4.1625    1.2125    0.0000 C   0  0  0  0  0  0  0  0  0  0  0  0
    2.9750    0.6833    0.0000 C   0  0  0  0  0  0  0  0  0  0  0  0
    6.7792    4.2500    0.0000 C   0  0  0  0  0  0  0  0  0  0  0  0
    7.4292    3.8833    0.0000 C   0  0  0  0  0  0  0  0  0  0  0  0
  2  1  1  0  0  0  0
  3  1  2  0  0  0  0
  4  2  2  0  0  0  0
  5  6  1  0  0  0  0
  6  9  1  0  0  0  0
  7  1  1  0  0  0  0
  8  3  1  0  0  0  0
  8  4  1  0  0  0  0
  9  4  1  0  0  0  0
 10  5  1  0  0  0  0
 11  7  2  0  0  0  0
 12  5  2  0  0  0  0
 13  6  1  0  0  0  0
 14 10  1  0  0  0  0
 15 10  2  0  0  0  0
 16 18  2  0  0  0  0
 16 19  1  0  0  0  0
 17 11  1  0  0  0  0
 18 15  1  0  0  0  0
 19 14  2  0  0  0  0
 20 16  1  0  0  0  0
 21  7  1  0  0  0  0
 22 11  1  0  0  0  0
 23 13  1  0  0  0  0
 24 13  1  0  0  0  0
 25 21  2  0  0  0  0
 26 25  1  0  0  0  0
 26 22  2  0  0  0  0
M  END
>  <ID>
7963467

>  <Supplier>
ChemBridge

>  <clogP>
4.489000000000003e+000

>  <RB>
4

>  <tPSA>
5.923000000000000e+001

>  <Hacc>
4

>  <Hdon>
0

>  <LogSw>
-6.202000000000000e+000

>  <Group>
1

>  <Core>
204

$$$$
6439791
 OpenBabel03312015312D

 34 37  0  0  0  0  0  0  0  0999 V2000
    6.0667   -6.7667    0.0000 N   0  0  0  0  0  0  0  0  0  0  0  0
    5.3125   -7.8292    0.0000 C   0  0  0  0  0  0  0  0  0  0  0  0
    4.1125   -7.4167    0.0000 C   0  0  0  0  0  0  0  0  0  0  0  0
    5.3125   -5.7250    0.0000 C   0  0  0  0  0  0  0  0  0  0  0  0
    4.1125   -6.1292    0.0000 C   0  0  0  0  0  0  0  0  0  0  0  0
    2.9792   -9.3792    0.0000 N   0  3  0  0  0  0  0  0  0  0  0  0
    2.9792   -8.0875    0.0000 C   0  0  0  0  0  0  0  0  0  0  0  0
    7.3500   -6.6667    0.0000 C   0  0  0  0  0  0  0  0  0  0  0  0
    9.7750   -4.1667    0.0000 C   0  0  0  0  0  0  0  0  0  0  0  0
   11.0500   -4.0292    0.0000 O   0  0  0  0  0  0  0  0  0  0  0  0
   13.0792   -4.9667    0.0000 C   0  0  0  0  0  0  0  0  0  0  0  0
    7.9125   -5.4917    0.0000 C   0  0  0  0  0  0  0  0  0  0  0  0
    9.2042   -5.3750    0.0000 C   0  0  0  0  0  0  0  0  0  0  0  0
   11.8042   -5.0667    0.0000 C   0  0  3  0  0  0  0  0  0  0  0  0
    5.7667   -9.1167    0.0000 O   0  0  0  0  0  0  0  0  0  0  0  0
    5.7667   -4.4750    0.0000 O   0  0  0  0  0  0  0  0  0  0  0  0
    1.8417  -10.0167    0.0000 O   0  5  0  0  0  0  0  0  0  0  0  0
    4.1125  -10.0167    0.0000 O   0  0  0  0  0  0  0  0  0  0  0  0
   13.8375   -6.0125    0.0000 C   0  0  0  0  0  0  0  0  0  0  0  0
    8.9750   -3.0792    0.0000 O   0  0  0  0  0  0  0  0  0  0  0  0
   13.6417   -3.8000    0.0000 O   0  0  0  0  0  0  0  0  0  0  0  0
   13.3167   -7.1917    0.0000 C   0  0  0  0  0  0  0  0  0  0  0  0
   15.1250   -5.9125    0.0000 C   0  0  0  0  0  0  0  0  0  0  0  0
    2.9792   -5.4917    0.0000 C   0  0  0  0  0  0  0  0  0  0  0  0
   15.8792   -6.9542    0.0000 C   0  0  0  0  0  0  0  0  0  0  0  0
   14.0667   -8.2792    0.0000 C   0  0  0  0  0  0  0  0  0  0  0  0
    8.1042   -7.7042    0.0000 C   0  0  0  0  0  0  0  0  0  0  0  0
   15.3167   -8.1750    0.0000 C   0  0  0  0  0  0  0  0  0  0  0  0
    1.8417   -7.4167    0.0000 C   0  0  0  0  0  0  0  0  0  0  0  0
    9.9542   -6.4375    0.0000 C   0  0  0  0  0  0  0  0  0  0  0  0
    1.8417   -6.1292    0.0000 C   0  0  0  0  0  0  0  0  0  0  0  0
    9.4250   -7.6125    0.0000 C   0  0  0  0  0  0  0  0  0  0  0  0
   11.1500   -6.1875    0.0000 C   0  0  0  0  0  0  0  0  0  0  0  0
   16.0000   -9.2667    0.0000 C   0  0  0  0  0  0  0  0  0  0  0  0
  2  1  1  0  0  0  0
  3  2  1  0  0  0  0
  4  1  1  0  0  0  0
  5  4  1  0  0  0  0
  5  3  2  0  0  0  0
  6  7  1  0  0  0  0
  7  3  1  0  0  0  0
  8  1  1  0  0  0  0
  9 13  1  0  0  0  0
 10  9  1  0  0  0  0
 11 14  1  0  0  0  0
 12  8  2  0  0  0  0
 13 12  1  0  0  0  0
 13 30  2  0  0  0  0
 14 10  1  0  0  0  0
 15  2  2  0  0  0  0
 16  4  2  0  0  0  0
 17  6  1  0  0  0  0
 18  6  2  0  0  0  0
 19 11  1  0  0  0  0
 20  9  2  0  0  0  0
 21 11  2  0  0  0  0
 22 19  1  0  0  0  0
 23 19  2  0  0  0  0
 24  5  1  0  0  0  0
 25 23  1  0  0  0  0
 26 22  2  0  0  0  0
 27  8  1  0  0  0  0
 28 25  2  0  0  0  0
 28 26  1  0  0  0  0
 29  7  2  0  0  0  0
 29 31  1  0  0  0  0
 30 32  1  0  0  0  0
 31 24  2  0  0  0  0
 32 27  2  0  0  0  0
 33 14  1  0  0  0  0
 34 28  1  0  0  0  0
M  CHG  2   6   1  17  -1
M  END
>  <ID>
6439791

>  <Supplier>
ChemBridge

>  <clogP>
4.430000000000002e+000

>  <RB>
6

>  <tPSA>
1.238900000000000e+002

>  <Hacc>
7

>  <Hdon>
0

>  <LogSw>
-6.715000000000000e+000

>  <Group>
1

>  <Core>
217

$$$$
7580186
 OpenBabel03312015312D

 29 33  0  0  0  0  0  0  0  0999 V2000
    5.3417   -1.9125    0.0000 C   0  0  0  0  0  0  0  0  0  0  0  0
    4.6292   -1.5000    0.0000 C   0  0  3  0  0  0  0  0  0  0  0  0
    3.9167   -1.9125    0.0000 C   0  0  0  0  0  0  0  0  0  0  0  0
    5.3417   -2.7417    0.0000 C   0  0  0  0  0  0  0  0  0  0  0  0
    6.0542   -1.5042    0.0000 C   0  0  0  0  0  0  0  0  0  0  0  0
    3.9167   -2.7417    0.0000 C   0  0  0  0  0  0  0  0  0  0  0  0
    4.6292   -3.1500    0.0000 N   0  0  0  0  0  0  0  0  0  0  0  0
    4.6292   -0.6750    0.0000 C   0  0  0  0  0  0  0  0  0  0  0  0
    6.7667   -1.9250    0.0000 N   0  0  0  0  0  0  0  0  0  0  0  0
    3.2042   -1.5042    0.0000 C   0  0  0  0  0  0  0  0  0  0  0  0
    5.3417   -0.2625    0.0000 C   0  0  0  0  0  0  0  0  0  0  0  0
    5.3417    0.5708    0.0000 C   0  0  0  0  0  0  0  0  0  0  0  0
    4.6292    0.9833    0.0000 C   0  0  0  0  0  0  0  0  0  0  0  0
    5.9542    1.1208    0.0000 O   0  0  0  0  0  0  0  0  0  0  0  0
    6.0667   -0.6792    0.0000 O   0  0  0  0  0  0  0  0  0  0  0  0
    4.7917    1.7875    0.0000 O   0  0  0  0  0  0  0  0  0  0  0  0
    3.9167   -0.2625    0.0000 C   0  0  0  0  0  0  0  0  0  0  0  0
    5.6167    1.8708    0.0000 C   0  0  0  0  0  0  0  0  0  0  0  0
    3.2042   -0.6792    0.0000 O   0  0  0  0  0  0  0  0  0  0  0  0
    3.9167    0.5708    0.0000 C   0  0  0  0  0  0  0  0  0  0  0  0
    8.1917   -2.7625    0.0000 O   0  0  0  0  0  0  0  0  0  0  0  0
    3.2042   -3.1625    0.0000 C   0  0  0  0  0  0  0  0  0  0  0  0
    6.0542   -3.1542    0.0000 C   0  0  0  0  0  0  0  0  0  0  0  0
    7.4792   -1.5125    0.0000 C   0  0  0  0  0  0  0  0  0  0  0  0
    6.7625   -2.7500    0.0000 C   0  0  0  0  0  0  0  0  0  0  0  0
    2.4917   -1.9125    0.0000 C   0  0  0  0  0  0  0  0  0  0  0  0
    2.4917   -2.7417    0.0000 C   0  0  0  0  0  0  0  0  0  0  0  0
    7.4667   -3.1667    0.0000 C   0  0  0  0  0  0  0  0  0  0  0  0
    8.1917   -1.9292    0.0000 C   0  0  0  0  0  0  0  0  0  0  0  0
  2  1  1  0  0  0  0
  3  2  1  0  0  0  0
  4  1  2  0  0  0  0
  5  1  1  0  0  0  0
  6  7  1  0  0  0  0
  6  3  2  0  0  0  0
  7  4  1  0  0  0  0
  8  2  1  0  0  0  0
  9  5  1  0  0  0  0
 10  3  1  0  0  0  0
 11  8  2  0  0  0  0
 12 11  1  0  0  0  0
 12 13  2  0  0  0  0
 13 20  1  0  0  0  0
 14 12  1  0  0  0  0
 15  5  2  0  0  0  0
 16 13  1  0  0  0  0
 16 18  1  0  0  0  0
 17  8  1  0  0  0  0
 18 14  1  0  0  0  0
 19 10  2  0  0  0  0
 20 17  2  0  0  0  0
 21 28  1  0  0  0  0
 21 29  1  0  0  0  0
 22  6  1  0  0  0  0
 23  4  1  0  0  0  0
 24  9  1  0  0  0  0
 25  9  1  0  0  0  0
 26 10  1  0  0  0  0
 27 22  1  0  0  0  0
 27 26  1  0  0  0  0
 28 25  1  0  0  0  0
 29 24  1  0  0  0  0
M  END
>  <ID>
7580186

>  <Supplier>
ChemBridge

>  <clogP>
1.713000000000000e+000

>  <RB>
2

>  <tPSA>
7.709999999999999e+001

>  <Hacc>
5

>  <Hdon>
1

>  <LogSw>
-3.420000000000000e+000

>  <Group>
3

>  <Core>
086

$$$$
6991093
 OpenBabel03312015312D

 24 25  0  0  0  0  0  0  0  0999 V2000
   -1.1708    0.0500    0.0000 C   0  0  0  0  0  0  0  0  0  0  0  0
   -0.6708    0.3500    0.0000 C   0  0  0  0  0  0  0  0  0  0  0  0
   -0.6708    0.9500    0.0000 C   0  0  0  0  0  0  0  0  0  0  0  0
   -1.1708   -0.5500    0.0000 C   0  0  0  0  0  0  0  0  0  0  0  0
   -1.6958    0.3500    0.0000 C   0  0  0  0  0  0  0  0  0  0  0  0
   -2.2125    0.6708    0.0000 N   0  0  0  0  0  0  0  0  0  0  0  0
   -0.1333    1.8500    0.0000 C   0  0  0  0  0  0  0  0  0  0  0  0
   -0.1500    1.2500    0.0000 C   0  0  0  0  0  0  0  0  0  0  0  0
   -1.1708    1.2500    0.0000 C   0  0  0  0  0  0  0  0  0  0  0  0
   -1.1708    1.8500    0.0000 C   0  0  0  0  0  0  0  0  0  0  0  0
   -0.6708    2.1500    0.0000 C   0  0  0  0  0  0  0  0  0  0  0  0
   -1.6958   -0.8500    0.0000 S   0  0  0  0  0  0  0  0  0  0  0  0
    0.4042    2.1500    0.0000 C   0  0  0  0  0  0  0  0  0  0  0  0
    0.9292    1.8500    0.0000 O   0  0  0  0  0  0  0  0  0  0  0  0
   -0.6708   -0.8500    0.0000 N   0  0  0  0  0  0  0  0  0  0  0  0
    1.4292    2.1333    0.0000 C   0  0  0  0  0  0  0  0  0  0  0  0
    2.4667    2.7333    0.0000 C   0  0  0  0  0  0  0  0  0  0  0  0
    3.0042    3.0333    0.0000 Br  0  0  0  0  0  0  0  0  0  0  0  0
    1.4292    2.7333    0.0000 C   0  0  0  0  0  0  0  0  0  0  0  0
    1.9500    1.8333    0.0000 C   0  0  0  0  0  0  0  0  0  0  0  0
    1.9500    3.0333    0.0000 C   0  0  0  0  0  0  0  0  0  0  0  0
    2.4667    2.1333    0.0000 C   0  0  0  0  0  0  0  0  0  0  0  0
   -1.7125    0.9500    0.0000 C   0  0  0  0  0  0  0  0  0  0  0  0
   -0.6958    2.7500    0.0000 C   0  0  0  0  0  0  0  0  0  0  0  0
  2  1  2  0  0  0  0
  3  2  1  0  0  0  0
  4  1  1  0  0  0  0
  5  1  1  0  0  0  0
  6  5  3  0  0  0  0
  7  8  1  0  0  0  0
  7 11  2  0  0  0  0
  8  3  2  0  0  0  0
  9  3  1  0  0  0  0
 10  9  2  0  0  0  0
 11 10  1  0  0  0  0
 12  4  2  0  0  0  0
 13  7  1  0  0  0  0
 14 13  1  0  0  0  0
 15  4  1  0  0  0  0
 16 14  1  0  0  0  0
 17 22  1  0  0  0  0
 17 21  2  0  0  0  0
 18 17  1  0  0  0  0
 19 16  2  0  0  0  0
 20 16  1  0  0  0  0
 21 19  1  0  0  0  0
 22 20  2  0  0  0  0
 23  9  1  0  0  0  0
 24 11  1  0  0  0  0
M  END
>  <ID>
6991093

>  <Supplier>
ChemBridge

>  <clogP>
4.950000000000000e+000

>  <RB>
5

>  <tPSA>
5.904000000000000e+001

>  <Hacc>
2

>  <Hdon>
1

>  <LogSw>
-6.617999999999998e+000

>  <Group>
1

>  <Core>
109

$$$$
5424385
 OpenBabel03312015312D

 25 25  0  0  0  0  0  0  0  0999 V2000
    2.1292    3.0000    0.0000 C   0  0  0  0  0  0  0  0  0  0  0  0
   -0.5958    2.2125    0.0000 C   0  0  0  0  0  0  0  0  0  0  0  0
    2.8042    3.4000    0.0000 N   0  0  0  0  0  0  0  0  0  0  0  0
    0.0875    1.8125    0.0000 C   0  0  0  0  0  0  0  0  0  0  0  0
    2.1292    2.2125    0.0000 C   0  0  0  0  0  0  0  0  0  0  0  0
    1.4500    3.3958    0.0000 C   0  0  0  0  0  0  0  0  0  0  0  0
    0.7667    2.2125    0.0000 C   0  0  0  0  0  0  0  0  0  0  0  0
   -2.6333    1.0125    0.0000 C   0  0  0  0  0  0  0  0  0  0  0  0
   -2.6458    3.3833    0.0000 C   0  0  0  0  0  0  0  0  0  0  0  0
   -1.9500    2.2083    0.0000 N   0  0  0  0  0  0  0  0  0  0  0  0
   -3.9583    1.0000    0.0000 N   0  0  0  0  0  0  0  0  0  0  0  0
   -4.0000    3.3458    0.0000 N   0  0  0  0  0  0  0  0  0  0  0  0
    0.7667    3.0000    0.0000 C   0  0  0  0  0  0  0  0  0  0  0  0
    1.4500    1.8125    0.0000 C   0  0  0  0  0  0  0  0  0  0  0  0
   -1.2708    1.8125    0.0000 C   0  0  0  0  0  0  0  0  0  0  0  0
   -3.2958    0.6208    0.0000 C   0  0  0  0  0  0  0  0  0  0  0  0
   -3.3208    2.9708    0.0000 C   0  0  0  0  0  0  0  0  0  0  0  0
   -1.9500    2.9708    0.0000 C   0  0  0  0  0  0  0  0  0  0  0  0
   -2.6333    1.7958    0.0000 C   0  0  0  0  0  0  0  0  0  0  0  0
    3.4792    3.0208    0.0000 C   0  0  0  0  0  0  0  0  0  0  0  0
    2.8042    4.1792    0.0000 C   0  0  0  0  0  0  0  0  0  0  0  0
   -4.6125    0.6208    0.0000 C   0  0  0  0  0  0  0  0  0  0  0  0
   -4.6583    2.9458    0.0000 C   0  0  0  0  0  0  0  0  0  0  0  0
   -4.0208    4.0917    0.0000 C   0  0  0  0  0  0  0  0  0  0  0  0
   -3.9583    1.7625    0.0000 C   0  0  0  0  0  0  0  0  0  0  0  0
  2  4  2  0  0  0  0
  3  1  1  0  0  0  0
  4  7  1  0  0  0  0
  5  1  1  0  0  0  0
  6  1  2  0  0  0  0
  7 13  2  0  0  0  0
  8 19  1  0  0  0  0
  9 18  1  0  0  0  0
 10 15  1  0  0  0  0
 11 16  1  0  0  0  0
 12 17  1  0  0  0  0
 13  6  1  0  0  0  0
 14  5  2  0  0  0  0
 14  7  1  0  0  0  0
 15  2  1  0  0  0  0
 16  8  1  0  0  0  0
 17  9  1  0  0  0  0
 18 10  1  0  0  0  0
 19 10  1  0  0  0  0
 20  3  1  0  0  0  0
 21  3  1  0  0  0  0
 22 11  1  0  0  0  0
 23 12  1  0  0  0  0
 24 12  1  0  0  0  0
 25 11  1  0  0  0  0
M  END
>  <ID>
5424385

>  <Supplier>
ChemBridge

>  <clogP>
4.150000000000000e+000

>  <RB>
9

>  <tPSA>
1.296000000000000e+001

>  <Hacc>
3

>  <Hdon>
0

>  <LogSw>
-4.263000000000000e+000

>  <Group>
1

$$$$
5737820
 OpenBabel03312015312D

 18 19  0  0  0  0  0  0  0  0999 V2000
   -1.2833   -0.0875    0.0000 C   0  0  0  0  0  0  0  0  0  0  0  0
   -1.2833   -1.0292    0.0000 C   0  0  0  0  0  0  0  0  0  0  0  0
   -2.0958    0.3958    0.0000 C   0  0  0  0  0  0  0  0  0  0  0  0
   -2.0958   -1.5000    0.0000 C   0  0  0  0  0  0  0  0  0  0  0  0
   -2.8958   -0.0875    0.0000 C   0  0  0  0  0  0  0  0  0  0  0  0
    2.4292   -0.0667    0.0000 N   0  0  0  0  0  0  0  0  0  0  0  0
   -2.8958   -1.0292    0.0000 C   0  0  0  0  0  0  0  0  0  0  0  0
    4.3292   -0.8167    0.0000 O   0  0  0  0  0  0  0  0  0  0  0  0
   -0.7000   -1.3292    0.0000 Cl  0  0  0  0  0  0  0  0  0  0  0  0
   -2.1125    0.8625    0.0000 Cl  0  0  0  0  0  0  0  0  0  0  0  0
   -0.3708    0.3208    0.0000 O   0  0  0  0  0  0  0  0  0  0  0  0
   -3.4333   -1.2500    0.0000 Cl  0  0  0  0  0  0  0  0  0  0  0  0
    1.6000    0.2833    0.0000 C   0  0  0  0  0  0  0  0  0  0  0  0
    0.6792   -0.2292    0.0000 C   0  0  0  0  0  0  0  0  0  0  0  0
    3.1667    0.4708    0.0000 C   0  0  0  0  0  0  0  0  0  0  0  0
    2.5375   -0.9667    0.0000 C   0  0  0  0  0  0  0  0  0  0  0  0
    3.3792   -1.3375    0.0000 C   0  0  0  0  0  0  0  0  0  0  0  0
    4.0042    0.1000    0.0000 C   0  0  0  0  0  0  0  0  0  0  0  0
  2  1  2  0  0  0  0
  3  1  1  0  0  0  0
  4  2  1  0  0  0  0
  5  3  2  0  0  0  0
  6 13  1  0  0  0  0
  7  5  1  0  0  0  0
  7  4  2  0  0  0  0
  8 17  1  0  0  0  0
  8 18  1  0  0  0  0
  9  2  1  0  0  0  0
 10  3  1  0  0  0  0
 11  1  1  0  0  0  0
 12  7  1  0  0  0  0
 13 14  1  0  0  0  0
 14 11  1  0  0  0  0
 15  6  1  0  0  0  0
 16  6  1  0  0  0  0
 17 16  1  0  0  0  0
 18 15  1  0  0  0  0
M  END
>  <ID>
5737820

>  <Supplier>
ChemBridge

>  <clogP>
4.060000000000000e+000

>  <RB>
4

>  <tPSA>
2.170000000000000e+001

>  <Hacc>
3

>  <Hdon>
0

>  <LogSw>
-3.924000000000000e+000

>  <Group>
3

>  <Core>
318

$$$$
9142720
 OpenBabel03312015312D

 20 21  0  0  0  0  0  0  0  0999 V2000
    1.8167    1.3458    0.0000 C   0  0  0  0  0  0  0  0  0  0  0  0
    1.1750    1.7208    0.0000 N   0  0  0  0  0  0  0  0  0  0  0  0
    2.4667    1.7208    0.0000 C   0  0  0  0  0  0  0  0  0  0  0  0
    3.7667    1.7208    0.0000 C   0  0  0  0  0  0  0  0  0  0  0  0
    3.1167    1.3458    0.0000 C   0  0  0  0  0  0  0  0  0  0  0  0
   -0.7750    1.3458    0.0000 C   0  0  0  0  0  0  0  0  0  0  0  0
   -1.4250    1.7208    0.0000 C   0  0  0  0  0  0  0  0  0  0  0  0
    3.7667    2.4708    0.0000 C   0  0  0  0  0  0  0  0  0  0  0  0
    0.5250    1.3458    0.0000 C   0  0  0  0  0  0  0  0  0  0  0  0
    1.8167    0.5958    0.0000 O   0  0  0  0  0  0  0  0  0  0  0  0
   -0.1250    1.7208    0.0000 C   0  0  0  0  0  0  0  0  0  0  0  0
    2.4667    2.4708    0.0000 C   0  0  0  0  0  0  0  0  0  0  0  0
   -2.0750    1.3458    0.0000 O   0  0  0  0  0  0  0  0  0  0  0  0
    3.1167    2.8458    0.0000 C   0  0  0  0  0  0  0  0  0  0  0  0
    4.4167    1.3458    0.0000 F   0  0  0  0  0  0  0  0  0  0  0  0
    4.4167    2.8458    0.0000 F   0  0  0  0  0  0  0  0  0  0  0  0
   -0.7750    0.5958    0.0000 C   0  0  0  0  0  0  0  0  0  0  0  0
   -0.1250    0.2208    0.0000 C   0  0  0  0  0  0  0  0  0  0  0  0
    0.5250    0.5958    0.0000 C   0  0  0  0  0  0  0  0  0  0  0  0
   -1.4250    2.4708    0.0000 C   0  0  0  0  0  0  0  0  0  0  0  0
  2  1  1  0  0  0  0
  3  1  1  0  0  0  0
  4  5  1  0  0  0  0
  5  3  2  0  0  0  0
  6 11  1  0  0  0  0
  7  6  1  0  0  0  0
  8 14  1  0  0  0  0
  8  4  2  0  0  0  0
  9  2  1  0  0  0  0
 10  1  2  0  0  0  0
 11  9  2  0  0  0  0
 12  3  1  0  0  0  0
 13  7  2  0  0  0  0
 14 12  2  0  0  0  0
 15  4  1  0  0  0  0
 16  8  1  0  0  0  0
 17 18  1  0  0  0  0
 17  6  2  0  0  0  0
 18 19  2  0  0  0  0
 19  9  1  0  0  0  0
 20  7  1  0  0  0  0
M  END
>  <ID>
9142720

>  <Supplier>
ChemBridge

>  <clogP>
2.869000000000000e+000

>  <RB>
3

>  <tPSA>
4.616999999999997e+001

>  <Hacc>
2

>  <Hdon>
1

>  <LogSw>
-3.658000000000000e+000

>  <Group>
2

$$$$
7250319
 OpenBabel03312015312D

 22 25  0  0  0  0  0  0  0  0999 V2000
   -0.0833    0.6125    0.0000 N   0  0  0  0  0  0  0  0  0  0  0  0
    0.3167    1.3125    0.0000 C   0  0  0  0  0  0  0  0  0  0  0  0
   -0.0833    1.5333    0.0000 C   0  0  0  0  0  0  0  0  0  0  0  0
   -0.1833    0.1500    0.0000 C   0  0  0  0  0  0  0  0  0  0  0  0
    0.3167    0.8333    0.0000 C   0  0  0  0  0  0  0  0  0  0  0  0
   -0.4833    0.8333    0.0000 C   0  0  0  0  0  0  0  0  0  0  0  0
   -0.8833    0.6125    0.0000 C   0  0  0  0  0  0  0  0  0  0  0  0
   -0.4833    1.3125    0.0000 C   0  0  0  0  0  0  0  0  0  0  0  0
   -0.7833    0.1500    0.0000 C   0  0  0  0  0  0  0  0  0  0  0  0
    0.6542    1.6125    0.0000 S   0  0  0  0  0  0  0  0  0  0  0  0
    0.0167    1.9958    0.0000 C   0  0  0  0  0  0  0  0  0  0  0  0
    0.5000    2.0333    0.0000 S   0  0  0  0  0  0  0  0  0  0  0  0
   -1.2833    0.8333    0.0000 C   0  0  0  0  0  0  0  0  0  0  0  0
    0.1542   -0.1667    0.0000 O   0  0  0  0  0  0  0  0  0  0  0  0
   -0.8833    1.5333    0.0000 C   0  0  0  0  0  0  0  0  0  0  0  0
   -0.3000    2.3500    0.0000 S   0  0  0  0  0  0  0  0  0  0  0  0
   -1.1208   -0.1667    0.0000 O   0  0  0  0  0  0  0  0  0  0  0  0
   -1.2833    1.3125    0.0000 C   0  0  0  0  0  0  0  0  0  0  0  0
    0.7542    0.6958    0.0000 C   0  0  0  0  0  0  0  0  0  0  0  0
    0.7542    0.9958    0.0000 C   0  0  0  0  0  0  0  0  0  0  0  0
   -1.7333    1.4833    0.0000 O   0  0  0  0  0  0  0  0  0  0  0  0
   -2.1125    1.1708    0.0000 C   0  0  0  0  0  0  0  0  0  0  0  0
  2  5  1  0  0  0  0
  2  3  2  0  0  0  0
  3  8  1  0  0  0  0
  4  1  1  0  0  0  0
  5  1  1  0  0  0  0
  6  1  1  0  0  0  0
  7  6  1  0  0  0  0
  7  9  1  0  0  0  0
  8  6  2  0  0  0  0
  9  4  1  0  0  0  0
 10  2  1  0  0  0  0
 11  3  1  0  0  0  0
 12 10  1  0  0  0  0
 12 11  1  0  0  0  0
 13  7  2  0  0  0  0
 13 18  1  0  0  0  0
 14  4  2  0  0  0  0
 15  8  1  0  0  0  0
 16 11  2  0  0  0  0
 17  9  2  0  0  0  0
 18 15  2  0  0  0  0
 19  5  1  0  0  0  0
 20  5  1  0  0  0  0
 21 18  1  0  0  0  0
 22 21  1  0  0  0  0
M  END
>  <ID>
7250319

>  <Supplier>
ChemBridge

>  <clogP>
3.100000000000000e+000

>  <RB>
0

>  <tPSA>
4.661000000000000e+001

>  <Hacc>
3

>  <Hdon>
0

>  <LogSw>
-4.395000000000000e+000

>  <Group>
1

>  <Core>
184

$$$$
6844598
 OpenBabel03312015312D

 17 18  0  0  0  0  0  0  0  0999 V2000
    7.2750    3.5000    0.0000 C   0  0  0  0  0  0  0  0  0  0  0  0
    6.0625    2.8000    0.0000 C   0  0  0  0  0  0  0  0  0  0  0  0
    8.4875    4.1917    0.0000 C   0  0  0  0  0  0  0  0  0  0  0  0
    8.9542    2.8958    0.0000 O   0  0  0  0  0  0  0  0  0  0  0  0
    4.8500    2.1000    0.0000 C   0  0  0  0  0  0  0  0  0  0  0  0
    2.4250    2.1000    0.0000 C   0  0  0  0  0  0  0  0  0  0  0  0
    3.6375    2.8000    0.0000 O   0  0  0  0  0  0  0  0  0  0  0  0
    7.6000    5.2667    0.0000 C   0  0  0  0  0  0  0  0  0  0  0  0
    9.8875    4.4292    0.0000 C   0  0  0  0  0  0  0  0  0  0  0  0
    2.4250    0.7000    0.0000 C   0  0  0  0  0  0  0  0  0  0  0  0
    1.2125    2.8000    0.0000 C   0  0  0  0  0  0  0  0  0  0  0  0
   10.3542    5.7292    0.0000 C   0  0  0  0  0  0  0  0  0  0  0  0
    8.0667    6.5750    0.0000 C   0  0  0  0  0  0  0  0  0  0  0  0
    0.0000    2.1000    0.0000 C   0  0  0  0  0  0  0  0  0  0  0  0
    1.2125    0.0000    0.0000 C   0  0  0  0  0  0  0  0  0  0  0  0
    9.4667    6.8042    0.0000 C   0  0  0  0  0  0  0  0  0  0  0  0
    0.0000    0.7000    0.0000 C   0  0  0  0  0  0  0  0  0  0  0  0
  2  1  3  0  0  0  0
  3  1  1  0  0  0  0
  4  3  1  0  0  0  0
  5  2  1  0  0  0  0
  6  7  1  0  0  0  0
  7  5  1  0  0  0  0
  8  3  1  0  0  0  0
  9  3  1  0  0  0  0
 10  6  2  0  0  0  0
 11  6  1  0  0  0  0
 12  9  1  0  0  0  0
 13  8  1  0  0  0  0
 14 11  2  0  0  0  0
 15 10  1  0  0  0  0
 15 17  2  0  0  0  0
 16 12  1  0  0  0  0
 16 13  1  0  0  0  0
 17 14  1  0  0  0  0
M  END
>  <ID>
6844598

>  <Supplier>
ChemBridge

>  <clogP>
4.119999999999997e+000

>  <RB>
4

>  <tPSA>
2.946000000000000e+001

>  <Hacc>
2

>  <Hdon>
1

>  <LogSw>
-3.889000000000000e+000

>  <Group>
3

$$$$
9129347
 OpenBabel03312015312D

 17 18  0  0  0  0  0  0  0  0999 V2000
    2.8625    1.7125    0.0000 C   0  0  0  0  0  0  0  0  0  0  0  0
    3.3042    1.1083    0.0000 N   0  0  0  0  0  0  0  0  0  0  0  0
    3.3042    2.3208    0.0000 N   0  0  0  0  0  0  0  0  0  0  0  0
    4.0167    1.3375    0.0000 C   0  0  0  0  0  0  0  0  0  0  0  0
    2.1125    1.7125    0.0000 C   0  0  0  0  0  0  0  0  0  0  0  0
    4.0167    2.0875    0.0000 O   0  0  0  0  0  0  0  0  0  0  0  0
    1.6667    2.3208    0.0000 S   0  0  0  0  0  0  0  0  0  0  0  0
    5.9167    0.7583    0.0000 C   0  0  0  0  0  0  0  0  0  0  0  0
    5.3042    1.2000    0.0000 N   0  0  0  0  0  0  0  0  0  0  0  0
    1.6667    1.1083    0.0000 C   0  0  0  0  0  0  0  0  0  0  0  0
    0.9542    2.0875    0.0000 C   0  0  0  0  0  0  0  0  0  0  0  0
    0.9542    1.3375    0.0000 C   0  0  0  0  0  0  0  0  0  0  0  0
    5.8375    0.0125    0.0000 O   0  0  0  0  0  0  0  0  0  0  0  0
    4.6250    0.8958    0.0000 C   0  0  0  0  0  0  0  0  0  0  0  0
    6.6000    1.0708    0.0000 C   0  0  0  0  0  0  0  0  0  0  0  0
    7.2042    0.6250    0.0000 C   0  0  0  0  0  0  0  0  0  0  0  0
    7.8917    0.9333    0.0000 C   0  0  0  0  0  0  0  0  0  0  0  0
  2  1  1  0  0  0  0
  3  1  2  0  0  0  0
  4  2  2  0  0  0  0
  5  1  1  0  0  0  0
  6  3  1  0  0  0  0
  6  4  1  0  0  0  0
  7  5  1  0  0  0  0
  8  9  1  0  0  0  0
  9 14  1  0  0  0  0
 10  5  2  0  0  0  0
 11  7  1  0  0  0  0
 11 12  2  0  0  0  0
 12 10  1  0  0  0  0
 13  8  2  0  0  0  0
 14  4  1  0  0  0  0
 15  8  1  0  0  0  0
 16 15  1  0  0  0  0
 17 16  1  0  0  0  0
M  END
>  <ID>
9129347

>  <Supplier>
ChemBridge

>  <clogP>
1.355000000000000e+000

>  <RB>
3

>  <tPSA>
6.802000000000000e+001

>  <Hacc>
4

>  <Hdon>
1

>  <LogSw>
-2.191000000000000e+000

>  <Group>
2

>  <Core>
204

$$$$
6844596
 OpenBabel03312015312D

 31 33  0  0  0  0  0  0  0  0999 V2000
    0.2000    0.5625    0.0000 S   0  0  0  0  0  0  0  0  0  0  0  0
    0.7500    0.9500    0.0000 C   0  0  0  0  0  0  0  0  0  0  0  0
   -0.3708    0.9458    0.0000 C   0  0  0  0  0  0  0  0  0  0  0  0
   -0.1708    1.6333    0.0000 N   0  0  0  0  0  0  0  0  0  0  0  0
    0.5292    1.6333    0.0000 N   0  0  0  0  0  0  0  0  0  0  0  0
    4.6167    0.9708    0.0000 C   0  0  0  0  0  0  0  0  0  0  0  0
   -4.1000    0.1500    0.0000 C   0  0  0  0  0  0  0  0  0  0  0  0
   -3.4500    0.4208    0.0000 C   0  0  0  0  0  0  0  0  0  0  0  0
    3.9167    1.0625    0.0000 C   0  0  0  0  0  0  0  0  0  0  0  0
    2.5875    1.2958    0.0000 C   0  0  0  0  0  0  0  0  0  0  0  0
   -2.1958    0.8958    0.0000 C   0  0  0  0  0  0  0  0  0  0  0  0
    2.8292    0.6500    0.0000 N   0  0  0  0  0  0  0  0  0  0  0  0
   -2.7125    1.3208    0.0000 N   0  0  0  0  0  0  0  0  0  0  0  0
   -1.0125    0.7000    0.0000 S   0  0  0  0  0  0  0  0  0  0  0  0
    1.4500    0.8708    0.0000 S   0  0  0  0  0  0  0  0  0  0  0  0
    3.5167    0.5333    0.0000 C   0  0  0  0  0  0  0  0  0  0  0  0
   -3.3625    1.0958    0.0000 C   0  0  0  0  0  0  0  0  0  0  0  0
    4.8875    0.3500    0.0000 C   0  0  0  0  0  0  0  0  0  0  0  0
   -4.6458    0.5833    0.0000 C   0  0  0  0  0  0  0  0  0  0  0  0
    3.0167    1.8333    0.0000 O   0  0  0  0  0  0  0  0  0  0  0  0
   -2.3208    0.2000    0.0000 O   0  0  0  0  0  0  0  0  0  0  0  0
   -4.5500    1.2625    0.0000 C   0  0  0  0  0  0  0  0  0  0  0  0
    4.4667   -0.2000    0.0000 C   0  0  0  0  0  0  0  0  0  0  0  0
    1.9042    1.4125    0.0000 C   0  0  0  0  0  0  0  0  0  0  0  0
   -1.5458    1.1333    0.0000 C   0  0  0  0  0  0  0  0  0  0  0  0
   -4.2083   -0.5292    0.0000 F   0  0  0  0  0  0  0  0  0  0  0  0
    5.0500    1.5000    0.0000 F   0  0  0  0  0  0  0  0  0  0  0  0
   -3.9208    1.5208    0.0000 C   0  0  0  0  0  0  0  0  0  0  0  0
    3.7875   -0.1167    0.0000 C   0  0  0  0  0  0  0  0  0  0  0  0
   -5.2708    0.3333    0.0000 F   0  0  0  0  0  0  0  0  0  0  0  0
    5.5667    0.2958    0.0000 F   0  0  0  0  0  0  0  0  0  0  0  0
  2  1  1  0  0  0  0
  3  1  1  0  0  0  0
  4  3  2  0  0  0  0
  4  5  1  0  0  0  0
  5  2  2  0  0  0  0
  6  9  2  0  0  0  0
  7  8  2  0  0  0  0
  8 17  1  0  0  0  0
  9 16  1  0  0  0  0
 10 24  1  0  0  0  0
 11 25  1  0  0  0  0
 12 10  1  0  0  0  0
 13 11  1  0  0  0  0
 14  3  1  0  0  0  0
 15  2  1  0  0  0  0
 16 12  1  0  0  0  0
 17 13  1  0  0  0  0
 18 23  2  0  0  0  0
 18  6  1  0  0  0  0
 19 22  2  0  0  0  0
 19  7  1  0  0  0  0
 20 10  2  0  0  0  0
 21 11  2  0  0  0  0
 22 28  1  0  0  0  0
 23 29  1  0  0  0  0
 24 15  1  0  0  0  0
 25 14  1  0  0  0  0
 26  7  1  0  0  0  0
 27  6  1  0  0  0  0
 28 17  2  0  0  0  0
 29 16  2  0  0  0  0
 30 19  1  0  0  0  0
 31 18  1  0  0  0  0
M  END
>  <ID>
6844596

>  <Supplier>
ChemBridge

>  <clogP>
3.110000000000000e+000

>  <RB>
8

>  <tPSA>
8.398000000000002e+001

>  <Hacc>
4

>  <Hdon>
2

>  <LogSw>
-5.416000000000000e+000

>  <Group>
1

>  <Core>
248

$$$$
7250312
 OpenBabel03312015312D

 32 34  0  0  0  0  0  0  0  0999 V2000
    0.2875    1.1125    0.0000 S   0  0  0  0  0  0  0  0  0  0  0  0
   -4.1208    2.1708    0.0000 S   0  0  0  0  0  0  0  0  0  0  0  0
   -0.3333    0.7625    0.0000 N   0  0  0  0  0  0  0  0  0  0  0  0
   -3.5000    1.8208    0.0000 N   0  0  0  0  0  0  0  0  0  0  0  0
    0.9042    1.4625    0.0000 C   0  0  0  0  0  0  0  0  0  0  0  0
   -4.7458    2.5208    0.0000 C   0  0  0  0  0  0  0  0  0  0  0  0
   -0.0625    1.7333    0.0000 O   0  0  0  0  0  0  0  0  0  0  0  0
    0.6375    0.4833    0.0000 O   0  0  0  0  0  0  0  0  0  0  0  0
   -3.7625    2.7958    0.0000 O   0  0  0  0  0  0  0  0  0  0  0  0
   -4.4708    1.5458    0.0000 O   0  0  0  0  0  0  0  0  0  0  0  0
    1.5292    1.1000    0.0000 C   0  0  0  0  0  0  0  0  0  0  0  0
    0.9167    2.1708    0.0000 C   0  0  0  0  0  0  0  0  0  0  0  0
   -5.3625    2.1625    0.0000 C   0  0  0  0  0  0  0  0  0  0  0  0
   -4.7500    3.2333    0.0000 C   0  0  0  0  0  0  0  0  0  0  0  0
   -3.4958    1.1000    0.0000 C   0  0  0  0  0  0  0  0  0  0  0  0
   -0.9500    1.1208    0.0000 C   0  0  0  0  0  0  0  0  0  0  0  0
   -2.1958    1.1208    0.0000 C   0  0  0  0  0  0  0  0  0  0  0  0
    2.1542    2.1625    0.0000 C   0  0  0  0  0  0  0  0  0  0  0  0
   -5.9958    3.2208    0.0000 C   0  0  0  0  0  0  0  0  0  0  0  0
   -2.8333    0.7625    0.0000 C   0  0  0  0  0  0  0  0  0  0  0  0
   -1.5708    0.7625    0.0000 C   0  0  0  0  0  0  0  0  0  0  0  0
    2.1500    1.4500    0.0000 C   0  0  0  0  0  0  0  0  0  0  0  0
    1.5375    2.5208    0.0000 C   0  0  0  0  0  0  0  0  0  0  0  0
   -5.3708    3.5833    0.0000 C   0  0  0  0  0  0  0  0  0  0  0  0
   -5.9833    2.5208    0.0000 C   0  0  0  0  0  0  0  0  0  0  0  0
    2.7792    2.5208    0.0000 O   0  0  0  0  0  0  0  0  0  0  0  0
   -6.6042    3.5708    0.0000 O   0  0  0  0  0  0  0  0  0  0  0  0
   -2.1958   -0.3375    0.0000 C   0  0  0  0  0  0  0  0  0  0  0  0
   -1.5708    0.0458    0.0000 C   0  0  0  0  0  0  0  0  0  0  0  0
   -2.8333    0.0458    0.0000 C   0  0  0  0  0  0  0  0  0  0  0  0
    3.3875    2.1625    0.0000 C   0  0  0  0  0  0  0  0  0  0  0  0
   -6.6167    4.2792    0.0000 C   0  0  0  0  0  0  0  0  0  0  0  0
  2  4  1  0  0  0  0
  3  1  1  0  0  0  0
  4 15  1  0  0  0  0
  5  1  1  0  0  0  0
  6  2  1  0  0  0  0
  7  1  2  0  0  0  0
  8  1  2  0  0  0  0
  9  2  2  0  0  0  0
 10  2  2  0  0  0  0
 11  5  2  0  0  0  0
 12  5  1  0  0  0  0
 13  6  1  0  0  0  0
 14  6  2  0  0  0  0
 15 20  1  0  0  0  0
 16  3  1  0  0  0  0
 17 21  1  0  0  0  0
 18 23  1  0  0  0  0
 18 22  2  0  0  0  0
 19 24  2  0  0  0  0
 20 17  2  0  0  0  0
 21 16  1  0  0  0  0
 22 11  1  0  0  0  0
 23 12  2  0  0  0  0
 24 14  1  0  0  0  0
 25 13  2  0  0  0  0
 25 19  1  0  0  0  0
 26 18  1  0  0  0  0
 27 19  1  0  0  0  0
 28 29  1  0  0  0  0
 29 21  2  0  0  0  0
 30 28  2  0  0  0  0
 30 20  1  0  0  0  0
 31 26  1  0  0  0  0
 32 27  1  0  0  0  0
M  END
>  <ID>
7250312

>  <Supplier>
ChemBridge

>  <clogP>
3.790000000000000e+000

>  <RB>
6

>  <tPSA>
1.108000000000000e+002

>  <Hacc>
8

>  <Hdon>
2

>  <LogSw>
-5.910000000000000e+000

>  <Group>
2

>  <Core>
519

$$$$
7250311
 OpenBabel03312015312D

 36 41  0  0  0  0  0  0  0  0999 V2000
   -1.8000    2.5208    0.0000 C   0  0  0  0  0  0  0  0  0  0  0  0
   -2.4125    2.9583    0.0000 C   0  0  0  0  0  0  0  0  0  0  0  0
   -1.1833    2.9333    0.0000 S   0  0  0  0  0  0  0  0  0  0  0  0
   -2.1500    3.6833    0.0000 C   0  0  0  0  0  0  0  0  0  0  0  0
   -1.8208    1.7708    0.0000 N   0  0  0  0  0  0  0  0  0  0  0  0
   -1.1625    1.3958    0.0000 C   0  0  0  0  0  0  0  0  0  0  0  0
   -1.4000    3.6708    0.0000 C   0  0  0  0  0  0  0  0  0  0  0  0
   -1.1625    0.6333    0.0000 C   0  0  0  0  0  0  0  0  0  0  0  0
   -1.1625   -0.9042    0.0000 N   0  0  0  0  0  0  0  0  0  0  0  0
   -1.8208   -0.5292    0.0000 C   0  0  0  0  0  0  0  0  0  0  0  0
   -3.1208    2.7125    0.0000 C   0  0  0  0  0  0  0  0  0  0  0  0
   -1.8208    0.2500    0.0000 C   0  0  0  0  0  0  0  0  0  0  0  0
   -0.5000    0.2500    0.0000 C   0  0  0  0  0  0  0  0  0  0  0  0
   -0.5000   -0.5292    0.0000 C   0  0  0  0  0  0  0  0  0  0  0  0
   -2.4833   -0.9042    0.0000 C   0  0  0  0  0  0  0  0  0  0  0  0
   -3.7833   -0.9042    0.0000 C   0  0  0  0  0  0  0  0  0  0  0  0
   -3.1208   -0.5292    0.0000 C   0  0  0  0  0  0  0  0  0  0  0  0
   -3.7833   -1.6667    0.0000 C   0  0  0  0  0  0  0  0  0  0  0  0
   -4.5208   -0.6875    0.0000 O   0  0  0  0  0  0  0  0  0  0  0  0
   -4.5208   -1.9000    0.0000 O   0  0  0  0  0  0  0  0  0  0  0  0
   -0.5000    1.7708    0.0000 O   0  0  0  0  0  0  0  0  0  0  0  0
   -4.9458   -1.2875    0.0000 C   0  0  0  0  0  0  0  0  0  0  0  0
   -3.2458    1.9958    0.0000 O   0  0  0  0  0  0  0  0  0  0  0  0
   -2.4833   -1.6667    0.0000 C   0  0  0  0  0  0  0  0  0  0  0  0
   -3.1208   -2.0500    0.0000 C   0  0  0  0  0  0  0  0  0  0  0  0
   -3.6958    3.2083    0.0000 N   0  0  0  0  0  0  0  0  0  0  0  0
   -2.6958    4.1500    0.0000 C   0  0  0  0  0  0  0  0  0  0  0  0
   -0.8458    4.1667    0.0000 C   0  0  0  0  0  0  0  0  0  0  0  0
    0.1375    0.6333    0.0000 C   0  0  0  0  0  0  0  0  0  0  0  0
    0.1375   -0.9042    0.0000 C   0  0  0  0  0  0  0  0  0  0  0  0
   -2.6708    4.9167    0.0000 C   0  0  0  0  0  0  0  0  0  0  0  0
   -0.8333    4.9167    0.0000 C   0  0  0  0  0  0  0  0  0  0  0  0
    0.8000    0.2500    0.0000 C   0  0  0  0  0  0  0  0  0  0  0  0
    0.8000   -0.5292    0.0000 C   0  0  0  0  0  0  0  0  0  0  0  0
   -1.3833    5.4292    0.0000 C   0  0  0  0  0  0  0  0  0  0  0  0
   -2.1333    5.4375    0.0000 C   0  0  0  0  0  0  0  0  0  0  0  0
  2  1  2  0  0  0  0
  3  1  1  0  0  0  0
  4  2  1  0  0  0  0
  5  1  1  0  0  0  0
  6  5  1  0  0  0  0
  7  3  1  0  0  0  0
  7  4  2  0  0  0  0
  8  6  1  0  0  0  0
  9 14  1  0  0  0  0
  9 10  2  0  0  0  0
 10 12  1  0  0  0  0
 11  2  1  0  0  0  0
 12  8  2  0  0  0  0
 13  8  1  0  0  0  0
 14 13  2  0  0  0  0
 15 10  1  0  0  0  0
 16 17  2  0  0  0  0
 16 18  1  0  0  0  0
 17 15  1  0  0  0  0
 18 25  2  0  0  0  0
 19 16  1  0  0  0  0
 20 18  1  0  0  0  0
 21  6  2  0  0  0  0
 22 19  1  0  0  0  0
 22 20  1  0  0  0  0
 23 11  2  0  0  0  0
 24 15  2  0  0  0  0
 25 24  1  0  0  0  0
 26 11  1  0  0  0  0
 27  4  1  0  0  0  0
 28  7  1  0  0  0  0
 29 13  1  0  0  0  0
 30 14  1  0  0  0  0
 31 27  1  0  0  0  0
 32 28  1  0  0  0  0
 33 29  2  0  0  0  0
 34 33  1  0  0  0  0
 34 30  2  0  0  0  0
 35 32  1  0  0  0  0
 35 36  1  0  0  0  0
 36 31  1  0  0  0  0
M  END
>  <ID>
7250311

>  <Supplier>
ChemBridge

>  <clogP>
6.420000000000000e+000

>  <RB>
4

>  <tPSA>
1.035400000000000e+002

>  <Hacc>
5

>  <Hdon>
2

>  <LogSw>
-8.324000000000000e+000

>  <Group>
1

>  <Core>
097

$$$$
9106789
 OpenBabel03312015312D

 19 20  0  0  0  0  0  0  0  0999 V2000
   -0.0333    1.9583    0.0000 C   0  0  0  0  0  0  0  0  0  0  0  0
   -0.6750    1.5750    0.0000 N   0  0  0  0  0  0  0  0  0  0  0  0
   -0.0333    2.7083    0.0000 O   0  0  0  0  0  0  0  0  0  0  0  0
   -2.6625    1.8833    0.0000 O   0  0  0  0  0  0  0  0  0  0  0  0
    0.6167    1.5750    0.0000 C   0  0  0  0  0  0  0  0  0  0  0  0
   -1.3250    1.9583    0.0000 C   0  0  0  0  0  0  0  0  0  0  0  0
    1.9167    1.5750    0.0000 C   0  0  0  0  0  0  0  0  0  0  0  0
   -1.9750    1.5750    0.0000 C   0  0  3  0  0  0  0  0  0  0  0  0
    3.2167    0.8250    0.0000 C   0  0  0  0  0  0  0  0  0  0  0  0
    1.2667    1.9583    0.0000 C   0  0  0  0  0  0  0  0  0  0  0  0
    2.5667    1.9583    0.0000 C   0  0  0  0  0  0  0  0  0  0  0  0
    1.9167    0.8250    0.0000 C   0  0  0  0  0  0  0  0  0  0  0  0
    3.2167    1.5750    0.0000 C   0  0  0  0  0  0  0  0  0  0  0  0
    2.5667    0.4500    0.0000 C   0  0  0  0  0  0  0  0  0  0  0  0
   -3.1625    1.3208    0.0000 C   0  0  0  0  0  0  0  0  0  0  0  0
    3.8667    0.4500    0.0000 C   0  0  0  0  0  0  0  0  0  0  0  0
   -2.0583    0.8333    0.0000 C   0  0  0  0  0  0  0  0  0  0  0  0
    3.8667   -0.3000    0.0000 C   0  0  0  0  0  0  0  0  0  0  0  0
   -2.7875    0.6708    0.0000 C   0  0  0  0  0  0  0  0  0  0  0  0
  2  1  1  0  0  0  0
  3  1  2  0  0  0  0
  4  8  1  0  0  0  0
  5  1  1  0  0  0  0
  6  2  1  0  0  0  0
  7 10  1  0  0  0  0
  8  6  1  0  0  0  0
  9 14  2  0  0  0  0
  9 13  1  0  0  0  0
 10  5  1  0  0  0  0
 11  7  1  0  0  0  0
 12  7  2  0  0  0  0
 13 11  2  0  0  0  0
 14 12  1  0  0  0  0
 15  4  1  0  0  0  0
 16  9  1  0  0  0  0
 17  8  1  0  0  0  0
 18 16  1  0  0  0  0
 19 17  1  0  0  0  0
 19 15  1  0  0  0  0
M  END
>  <ID>
9106789

>  <Supplier>
ChemBridge

>  <clogP>
2.895000000000000e+000

>  <RB>
5

>  <tPSA>
3.833000000000000e+001

>  <Hacc>
2

>  <Hdon>
1

>  <LogSw>
-3.579000000000000e+000

>  <Group>
2

$$$$
6497759
 OpenBabel03312015312D

 24 26  0  0  0  0  0  0  0  0999 V2000
   -4.2333    1.4958    0.0000 C   0  0  0  0  0  0  0  0  0  0  0  0
   -3.6625    1.8333    0.0000 C   0  0  0  0  0  0  0  0  0  0  0  0
    1.5375    2.0458    0.0000 C   0  0  0  0  0  0  0  0  0  0  0  0
   -4.2333    0.8208    0.0000 C   0  0  0  0  0  0  0  0  0  0  0  0
   -3.6625    0.4833    0.0000 C   0  0  0  0  0  0  0  0  0  0  0  0
   -3.0833    1.4958    0.0000 C   0  0  0  0  0  0  0  0  0  0  0  0
    2.3000    1.6000    0.0000 C   0  0  0  0  0  0  0  0  0  0  0  0
    0.7667    1.6125    0.0000 C   0  0  0  0  0  0  0  0  0  0  0  0
   -3.0833    0.8208    0.0000 C   0  0  0  0  0  0  0  0  0  0  0  0
   -0.8625    1.8958    0.0000 C   0  0  0  0  0  0  0  0  0  0  0  0
   -2.3625    1.8708    0.0000 O   0  0  0  0  0  0  0  0  0  0  0  0
    0.4042    1.8458    0.0000 O   0  0  0  0  0  0  0  0  0  0  0  0
    2.6500    1.8458    0.0000 O   0  0  0  0  0  0  0  0  0  0  0  0
    1.5167    0.2833    0.0000 C   0  0  0  0  0  0  0  0  0  0  0  0
   -4.8625    1.8958    0.0000 C   0  0  0  0  0  0  0  0  0  0  0  0
   -1.6625    1.4458    0.0000 C   0  0  0  0  0  0  0  0  0  0  0  0
   -0.2333    1.5000    0.0000 C   0  0  0  0  0  0  0  0  0  0  0  0
    0.7500    0.7458    0.0000 C   0  0  0  0  0  0  0  0  0  0  0  0
    2.2792    0.7208    0.0000 C   0  0  0  0  0  0  0  0  0  0  0  0
   -4.8625    0.4500    0.0000 C   0  0  0  0  0  0  0  0  0  0  0  0
    3.1375    1.5958    0.0000 C   0  0  0  0  0  0  0  0  0  0  0  0
    3.8000    2.0458    0.0000 C   0  0  0  0  0  0  0  0  0  0  0  0
   -5.4958    1.5333    0.0000 C   0  0  0  0  0  0  0  0  0  0  0  0
   -5.4958    0.8125    0.0000 C   0  0  0  0  0  0  0  0  0  0  0  0
  2  1  2  0  0  0  0
  3  8  1  0  0  0  0
  4  1  1  0  0  0  0
  5  4  2  0  0  0  0
  6  2  1  0  0  0  0
  6  9  2  0  0  0  0
  7  3  2  0  0  0  0
  7 19  1  0  0  0  0
  8 12  1  0  0  0  0
  9  5  1  0  0  0  0
 10 16  1  0  0  0  0
 11  6  1  0  0  0  0
 12 17  1  0  0  0  0
 13  7  1  0  0  0  0
 14 18  1  0  0  0  0
 15  1  1  0  0  0  0
 16 11  1  0  0  0  0
 17 10  1  0  0  0  0
 18  8  2  0  0  0  0
 19 14  2  0  0  0  0
 20  4  1  0  0  0  0
 21 13  1  0  0  0  0
 22 21  1  0  0  0  0
 23 15  2  0  0  0  0
 24 23  1  0  0  0  0
 24 20  2  0  0  0  0
M  END
>  <ID>
6497759

>  <Supplier>
ChemBridge

>  <clogP>
5.990000000000000e+000

>  <RB>
6

>  <tPSA>
2.769000000000000e+001

>  <Hacc>
3

>  <Hdon>
0

>  <LogSw>
-6.666999999999998e+000

>  <Group>
2

>  <Core>
107

$$$$
7981972
 OpenBabel03312015312D

 21 23  0  0  0  0  0  0  0  0999 V2000
    4.2667    1.8708    0.0000 C   0  0  0  0  0  0  0  0  0  0  0  0
    4.9500    1.5708    0.0000 N   0  0  0  0  0  0  0  0  0  0  0  0
    1.0167    2.9958    0.0000 N   0  3  0  0  0  0  0  0  0  0  0  0
    4.3417    2.6208    0.0000 S   0  0  0  0  0  0  0  0  0  0  0  0
    3.6167    1.4958    0.0000 S   0  0  0  0  0  0  0  0  0  0  0  0
    1.6667    2.6208    0.0000 C   0  0  0  0  0  0  0  0  0  0  0  0
    2.3167    1.4958    0.0000 C   0  0  0  0  0  0  0  0  0  0  0  0
    5.4542    2.1208    0.0000 C   0  0  0  0  0  0  0  0  0  0  0  0
    2.9667    1.8708    0.0000 C   0  0  0  0  0  0  0  0  0  0  0  0
    5.0792    2.7708    0.0000 C   0  0  0  0  0  0  0  0  0  0  0  0
    1.6667    1.8708    0.0000 C   0  0  0  0  0  0  0  0  0  0  0  0
    1.0167    3.7458    0.0000 O   0  5  0  0  0  0  0  0  0  0  0  0
    0.3667    2.6208    0.0000 O   0  0  0  0  0  0  0  0  0  0  0  0
    2.3167    2.9958    0.0000 C   0  0  0  0  0  0  0  0  0  0  0  0
    2.9667    2.6208    0.0000 C   0  0  0  0  0  0  0  0  0  0  0  0
    2.3167    0.7458    0.0000 C   0  0  0  0  0  0  0  0  0  0  0  0
    1.6667    0.3708    0.0000 O   0  0  0  0  0  0  0  0  0  0  0  0
    6.2042    2.1208    0.0000 C   0  0  0  0  0  0  0  0  0  0  0  0
    5.4542    3.4208    0.0000 C   0  0  0  0  0  0  0  0  0  0  0  0
    6.5792    2.7708    0.0000 C   0  0  0  0  0  0  0  0  0  0  0  0
    6.2042    3.4208    0.0000 C   0  0  0  0  0  0  0  0  0  0  0  0
  2  1  2  0  0  0  0
  3  6  1  0  0  0  0
  4  1  1  0  0  0  0
  5  1  1  0  0  0  0
  6 14  2  0  0  0  0
  7  9  1  0  0  0  0
  8  2  1  0  0  0  0
  8 10  1  0  0  0  0
  9  5  1  0  0  0  0
 10  4  1  0  0  0  0
 11  7  2  0  0  0  0
 11  6  1  0  0  0  0
 12  3  1  0  0  0  0
 13  3  2  0  0  0  0
 14 15  1  0  0  0  0
 15  9  2  0  0  0  0
 16  7  1  0  0  0  0
 17 16  2  0  0  0  0
 18  8  2  0  0  0  0
 19 10  2  0  0  0  0
 20 18  1  0  0  0  0
 20 21  2  0  0  0  0
 21 19  1  0  0  0  0
M  CHG  2   3   1  12  -1
M  END
>  <ID>
7981972

>  <Supplier>
ChemBridge

>  <clogP>
4.387000000000000e+000

>  <RB>
3

>  <tPSA>
7.309999999999999e+001

>  <Hacc>
4

>  <Hdon>
0

>  <LogSw>
-5.643999999999998e+000

>  <Group>
1

>  <Core>
031

$$$$
7123482
 OpenBabel03312015312D

 25 26  0  0  0  0  0  0  0  0999 V2000
    5.7417   -4.4667    0.0000 S   0  0  0  0  0  0  0  0  0  0  0  0
    5.7417   -3.6417    0.0000 N   0  0  0  0  0  0  0  0  0  0  0  0
   10.7375   -3.2417    0.0000 N   0  3  0  0  0  0  0  0  0  0  0  0
    5.0250   -3.2292    0.0000 C   0  0  0  0  0  0  0  0  0  0  0  0
    6.4542   -3.2292    0.0000 C   0  0  0  0  0  0  0  0  0  0  0  0
    7.1667   -3.6417    0.0000 C   0  0  0  0  0  0  0  0  0  0  0  0
   10.0167   -3.6500    0.0000 C   0  0  0  0  0  0  0  0  0  0  0  0
    9.3042   -3.2292    0.0000 C   0  0  0  0  0  0  0  0  0  0  0  0
    6.3250   -5.0542    0.0000 O   0  0  0  0  0  0  0  0  0  0  0  0
    6.5667   -4.4667    0.0000 O   0  0  0  0  0  0  0  0  0  0  0  0
   11.4500   -3.6542    0.0000 O   0  5  0  0  0  0  0  0  0  0  0  0
    7.8792   -3.2292    0.0000 N   0  0  0  0  0  0  0  0  0  0  0  0
   10.7417   -2.4167    0.0000 O   0  0  0  0  0  0  0  0  0  0  0  0
    5.0292   -2.4042    0.0000 C   0  0  0  0  0  0  0  0  0  0  0  0
    8.5875   -3.6417    0.0000 C   0  0  0  0  0  0  0  0  0  0  0  0
    7.1667   -4.4667    0.0000 O   0  0  0  0  0  0  0  0  0  0  0  0
    5.0250   -4.8792    0.0000 C   0  0  0  0  0  0  0  0  0  0  0  0
    5.7417   -1.9792    0.0000 F   0  0  0  0  0  0  0  0  0  0  0  0
    4.3125   -3.6542    0.0000 C   0  0  0  0  0  0  0  0  0  0  0  0
   10.0125   -4.4792    0.0000 C   0  0  0  0  0  0  0  0  0  0  0  0
    9.3000   -4.8875    0.0000 C   0  0  0  0  0  0  0  0  0  0  0  0
    8.5875   -4.4667    0.0000 C   0  0  0  0  0  0  0  0  0  0  0  0
    4.3167   -1.9917    0.0000 C   0  0  0  0  0  0  0  0  0  0  0  0
    3.5917   -3.2292    0.0000 C   0  0  0  0  0  0  0  0  0  0  0  0
    3.5917   -2.4042    0.0000 C   0  0  0  0  0  0  0  0  0  0  0  0
  2  1  1  0  0  0  0
  3  7  1  0  0  0  0
  4  2  1  0  0  0  0
  5  2  1  0  0  0  0
  6  5  1  0  0  0  0
  7  8  1  0  0  0  0
  8 15  2  0  0  0  0
  9  1  2  0  0  0  0
 10  1  2  0  0  0  0
 11  3  1  0  0  0  0
 12  6  1  0  0  0  0
 13  3  2  0  0  0  0
 14  4  2  0  0  0  0
 15 12  1  0  0  0  0
 16  6  2  0  0  0  0
 17  1  1  0  0  0  0
 18 14  1  0  0  0  0
 19  4  1  0  0  0  0
 20 21  1  0  0  0  0
 20  7  2  0  0  0  0
 21 22  2  0  0  0  0
 22 15  1  0  0  0  0
 23 14  1  0  0  0  0
 23 25  2  0  0  0  0
 24 19  2  0  0  0  0
 25 24  1  0  0  0  0
M  CHG  2   3   1  11  -1
M  END
>  <ID>
7123482

>  <Supplier>
ChemBridge

>  <clogP>
2.400000000000000e+000

>  <RB>
4

>  <tPSA>
1.096200000000000e+002

>  <Hacc>
5

>  <Hdon>
1

>  <LogSw>
-4.318000000000000e+000

>  <Group>
3

>  <Core>
084

$$$$
6646560
 OpenBabel03312015312D

 18 19  0  0  0  0  0  0  0  0999 V2000
   -1.0625    1.0125    0.0000 C   0  0  0  0  0  0  0  0  0  0  0  0
   -2.1958   -0.8792    0.0000 C   0  0  0  0  0  0  0  0  0  0  0  0
   -1.0625   -0.1500    0.0000 S   0  0  0  0  0  0  0  0  0  0  0  0
   -3.3125   -0.1500    0.0000 N   0  0  0  0  0  0  0  0  0  0  0  0
   -3.3125    1.0125    0.0000 C   0  0  0  0  0  0  0  0  0  0  0  0
    0.2292    1.6500    0.0000 C   0  0  0  0  0  0  0  0  0  0  0  0
   -2.1958   -2.3375    0.0000 S   0  0  0  0  0  0  0  0  0  0  0  0
    1.4500    0.8958    0.0000 O   0  0  0  0  0  0  0  0  0  0  0  0
    0.2292    3.1083    0.0000 O   0  0  0  0  0  0  0  0  0  0  0  0
   -4.6208   -0.8667    0.0000 C   0  0  0  0  0  0  0  0  0  0  0  0
   -4.6000    1.6500    0.0000 C   0  0  0  0  0  0  0  0  0  0  0  0
    1.4500   -0.4167    0.0000 C   0  0  0  0  0  0  0  0  0  0  0  0
    2.6875   -1.1375    0.0000 C   0  0  0  0  0  0  0  0  0  0  0  0
    2.6875   -2.6000    0.0000 C   0  0  0  0  0  0  0  0  0  0  0  0
    3.9292   -0.4292    0.0000 C   0  0  0  0  0  0  0  0  0  0  0  0
    5.2375   -1.1042    0.0000 C   0  0  0  0  0  0  0  0  0  0  0  0
    3.9792   -3.2875    0.0000 C   0  0  0  0  0  0  0  0  0  0  0  0
    5.2375   -2.5542    0.0000 C   0  0  0  0  0  0  0  0  0  0  0  0
  2  3  1  0  0  0  0
  3  1  1  0  0  0  0
  4  5  1  0  0  0  0
  4  2  1  0  0  0  0
  5  1  2  0  0  0  0
  6  1  1  0  0  0  0
  7  2  2  0  0  0  0
  8  6  1  0  0  0  0
  9  6  2  0  0  0  0
 10  4  1  0  0  0  0
 11  5  1  0  0  0  0
 12  8  1  0  0  0  0
 13 12  1  0  0  0  0
 14 13  2  0  0  0  0
 15 13  1  0  0  0  0
 16 15  2  0  0  0  0
 17 14  1  0  0  0  0
 17 18  2  0  0  0  0
 18 16  1  0  0  0  0
M  END
>  <ID>
6646560

>  <Supplier>
ChemBridge

>  <clogP>
3.780000000000000e+000

>  <RB>
4

>  <tPSA>
3.123000000000000e+001

>  <Hacc>
2

>  <Hdon>
0

>  <LogSw>
-4.466000000000000e+000

>  <Group>
1

$$$$
9116942
 OpenBabel03312015312D

 19 19  0  0  0  0  0  0  0  0999 V2000
    6.1792    1.2625    0.0000 C   0  0  0  0  0  0  0  0  0  0  0  0
    5.5292    0.8875    0.0000 C   0  0  0  0  0  0  0  0  0  0  0  0
    6.1792    2.0208    0.0000 O   0  0  0  0  0  0  0  0  0  0  0  0
    6.8292    0.8875    0.0000 N   0  0  0  0  0  0  0  0  0  0  0  0
    4.8792    1.2625    0.0000 C   0  0  0  0  0  0  0  0  0  0  0  0
    5.5292    0.1375    0.0000 C   0  0  0  0  0  0  0  0  0  0  0  0
    4.2292    0.1375    0.0000 C   0  0  0  0  0  0  0  0  0  0  0  0
    4.8792   -0.2375    0.0000 C   0  0  0  0  0  0  0  0  0  0  0  0
    4.2292    0.8875    0.0000 C   0  0  0  0  0  0  0  0  0  0  0  0
    3.5792   -0.2375    0.0000 O   0  0  0  0  0  0  0  0  0  0  0  0
    1.6292    0.1375    0.0000 O   0  0  0  0  0  0  0  0  0  0  0  0
    7.4792    1.2625    0.0000 C   0  0  0  0  0  0  0  0  0  0  0  0
    2.9292    0.1375    0.0000 C   0  0  0  0  0  0  0  0  0  0  0  0
    2.2792   -0.2375    0.0000 C   0  0  0  0  0  0  0  0  0  0  0  0
    0.9875   -0.2375    0.0000 C   0  0  0  0  0  0  0  0  0  0  0  0
    8.1292    0.8875    0.0000 C   0  0  0  0  0  0  0  0  0  0  0  0
    8.7792    1.2625    0.0000 C   0  0  0  0  0  0  0  0  0  0  0  0
    0.3375    0.1375    0.0000 C   0  0  0  0  0  0  0  0  0  0  0  0
    9.4292    0.8875    0.0000 C   0  0  0  0  0  0  0  0  0  0  0  0
  2  1  1  0  0  0  0
  3  1  2  0  0  0  0
  4  1  1  0  0  0  0
  5  2  2  0  0  0  0
  6  2  1  0  0  0  0
  7  8  1  0  0  0  0
  7  9  2  0  0  0  0
  8  6  2  0  0  0  0
  9  5  1  0  0  0  0
 10  7  1  0  0  0  0
 11 14  1  0  0  0  0
 12  4  1  0  0  0  0
 13 10  1  0  0  0  0
 14 13  1  0  0  0  0
 15 11  1  0  0  0  0
 16 12  1  0  0  0  0
 17 16  1  0  0  0  0
 18 15  1  0  0  0  0
 19 17  1  0  0  0  0
M  END
>  <ID>
9116942

>  <Supplier>
ChemBridge

>  <clogP>
2.928000000000000e+000

>  <RB>
5

>  <tPSA>
4.756000000000000e+001

>  <Hacc>
3

>  <Hdon>
1

>  <LogSw>
-3.676000000000000e+000

>  <Group>
2

$$$$
6039960
 OpenBabel03312015312D

 29 32  0  0  0  0  0  0  0  0999 V2000
   -2.7958    0.9208    0.0000 C   0  0  0  0  0  0  0  0  0  0  0  0
   -3.2333    1.5125    0.0000 N   0  0  0  0  0  0  0  0  0  0  0  0
   -3.2333    0.2833    0.0000 N   0  0  0  0  0  0  0  0  0  0  0  0
   -3.9458    1.2833    0.0000 C   0  0  0  0  0  0  0  0  0  0  0  0
   -3.9458    0.5208    0.0000 C   0  0  0  0  0  0  0  0  0  0  0  0
   -0.8708    0.3208    0.0000 C   0  0  0  0  0  0  0  0  0  0  0  0
   -2.0333    0.9500    0.0000 S   0  0  0  0  0  0  0  0  0  0  0  0
    2.5667   -0.3500    0.0000 C   0  0  0  0  0  0  0  0  0  0  0  0
    2.9542   -1.0042    0.0000 C   0  0  0  0  0  0  0  0  0  0  0  0
   -0.4958   -0.3500    0.0000 N   0  0  0  0  0  0  0  0  0  0  0  0
   -4.5958    1.6625    0.0000 C   0  0  0  0  0  0  0  0  0  0  0  0
   -0.5125    0.9958    0.0000 O   0  0  0  0  0  0  0  0  0  0  0  0
   -4.5958    0.1458    0.0000 C   0  0  0  0  0  0  0  0  0  0  0  0
   -1.6333    0.3000    0.0000 C   0  0  0  0  0  0  0  0  0  0  0  0
    1.8042   -0.3500    0.0000 C   0  0  0  0  0  0  0  0  0  0  0  0
    0.2667   -0.3375    0.0000 C   0  0  0  0  0  0  0  0  0  0  0  0
   -5.2708    1.2833    0.0000 C   0  0  0  0  0  0  0  0  0  0  0  0
    3.7167   -0.9875    0.0000 C   0  0  0  0  0  0  0  0  0  0  0  0
   -5.2708    0.5208    0.0000 C   0  0  0  0  0  0  0  0  0  0  0  0
    1.4292   -1.0042    0.0000 C   0  0  0  0  0  0  0  0  0  0  0  0
    1.4292    0.3000    0.0000 C   0  0  0  0  0  0  0  0  0  0  0  0
    0.6667    0.3208    0.0000 C   0  0  0  0  0  0  0  0  0  0  0  0
    0.6667   -1.0042    0.0000 C   0  0  0  0  0  0  0  0  0  0  0  0
   -5.9125    1.6500    0.0000 C   0  0  0  0  0  0  0  0  0  0  0  0
    4.1000   -1.6542    0.0000 C   0  0  0  0  0  0  0  0  0  0  0  0
    4.1000   -0.3375    0.0000 C   0  0  0  0  0  0  0  0  0  0  0  0
    4.8542   -0.3500    0.0000 C   0  0  0  0  0  0  0  0  0  0  0  0
    4.8542   -1.6542    0.0000 C   0  0  0  0  0  0  0  0  0  0  0  0
    5.2375   -1.0042    0.0000 C   0  0  0  0  0  0  0  0  0  0  0  0
  2  1  2  0  0  0  0
  3  1  1  0  0  0  0
  4  2  1  0  0  0  0
  5  3  1  0  0  0  0
  5  4  2  0  0  0  0
  6 14  1  0  0  0  0
  7  1  1  0  0  0  0
  8 15  1  0  0  0  0
  9  8  2  0  0  0  0
 10  6  1  0  0  0  0
 11  4  1  0  0  0  0
 12  6  2  0  0  0  0
 13  5  1  0  0  0  0
 14  7  1  0  0  0  0
 15 20  1  0  0  0  0
 15 21  2  0  0  0  0
 16 10  1  0  0  0  0
 17 11  2  0  0  0  0
 18  9  1  0  0  0  0
 19 13  2  0  0  0  0
 19 17  1  0  0  0  0
 20 23  2  0  0  0  0
 21 22  1  0  0  0  0
 22 16  2  0  0  0  0
 23 16  1  0  0  0  0
 24 17  1  0  0  0  0
 25 18  2  0  0  0  0
 26 18  1  0  0  0  0
 27 26  2  0  0  0  0
 28 25  1  0  0  0  0
 28 29  2  0  0  0  0
 29 27  1  0  0  0  0
M  END
>  <ID>
6039960

>  <Supplier>
ChemBridge

>  <clogP>
5.850000000000000e+000

>  <RB>
6

>  <tPSA>
5.778000000000000e+001

>  <Hacc>
2

>  <Hdon>
2

>  <LogSw>
-7.108000000000000e+000

>  <Group>
1

>  <Core>
012

$$$$
6598688
 OpenBabel03312015312D

 23 24  0  0  0  0  0  0  0  0999 V2000
   11.4917    1.2333    0.0000 N   0  3  0  0  0  0  0  0  0  0  0  0
    4.4750    1.2625    0.0000 C   0  0  0  0  0  0  0  0  0  0  0  0
    3.7750    2.4833    0.0000 N   0  0  0  0  0  0  0  0  0  0  0  0
   10.0917    1.2333    0.0000 C   0  0  0  0  0  0  0  0  0  0  0  0
    5.8750    1.2625    0.0000 N   0  0  0  0  0  0  0  0  0  0  0  0
    9.3917    2.4625    0.0000 C   0  0  0  0  0  0  0  0  0  0  0  0
    2.3750    2.4833    0.0000 C   0  0  0  0  0  0  0  0  0  0  0  0
    7.2750    1.2583    0.0000 C   0  0  0  0  0  0  0  0  0  0  0  0
    7.9917    2.4708    0.0000 C   0  0  0  0  0  0  0  0  0  0  0  0
    1.6750    6.1042    0.0000 C   0  0  0  0  0  0  0  0  0  0  0  0
    1.6750    3.6958    0.0000 C   0  0  0  0  0  0  0  0  0  0  0  0
    2.3750    4.9000    0.0000 C   0  0  0  0  0  0  0  0  0  0  0  0
   12.1875    0.0000    0.0000 O   0  5  0  0  0  0  0  0  0  0  0  0
    3.7750    0.0500    0.0000 S   0  0  0  0  0  0  0  0  0  0  0  0
   12.2042    2.4333    0.0000 O   0  0  0  0  0  0  0  0  0  0  0  0
    0.2875    6.2542    0.0000 O   0  0  0  0  0  0  0  0  0  0  0  0
    2.2417    7.3875    0.0000 C   0  0  0  0  0  0  0  0  0  0  0  0
    0.0000    7.6167    0.0000 C   0  0  0  0  0  0  0  0  0  0  0  0
    9.3875    0.0333    0.0000 C   0  0  0  0  0  0  0  0  0  0  0  0
    7.9750    0.0458    0.0000 C   0  0  0  0  0  0  0  0  0  0  0  0
    1.6750    1.2625    0.0000 O   0  0  0  0  0  0  0  0  0  0  0  0
    1.2042    8.3167    0.0000 C   0  0  0  0  0  0  0  0  0  0  0  0
    7.3042    3.6958    0.0000 Cl  0  0  0  0  0  0  0  0  0  0  0  0
  2  5  1  0  0  0  0
  3  2  1  0  0  0  0
  4  1  1  0  0  0  0
  5  8  1  0  0  0  0
  6  4  1  0  0  0  0
  7  3  1  0  0  0  0
  8 20  2  0  0  0  0
  8  9  1  0  0  0  0
  9  6  2  0  0  0  0
 10 12  1  0  0  0  0
 11  7  1  0  0  0  0
 12 11  2  0  0  0  0
 13  1  1  0  0  0  0
 14  2  2  0  0  0  0
 15  1  2  0  0  0  0
 16 10  1  0  0  0  0
 17 10  2  0  0  0  0
 18 16  1  0  0  0  0
 18 22  2  0  0  0  0
 19  4  2  0  0  0  0
 20 19  1  0  0  0  0
 21  7  2  0  0  0  0
 22 17  1  0  0  0  0
 23  9  1  0  0  0  0
M  CHG  2   1   1  13  -1
M  END
>  <ID>
6598688

>  <Supplier>
ChemBridge

>  <clogP>
4.270000000000001e+000

>  <RB>
3

>  <tPSA>
9.741000000000000e+001

>  <Hacc>
4

>  <Hdon>
2

>  <LogSw>
-5.801000000000000e+000

>  <Group>
2

>  <Core>
435

$$$$
6598687
 OpenBabel03312015312D

 23 25  0  0  0  0  0  0  0  0999 V2000
   -1.4833    0.6125    0.0000 N   0  0  0  0  0  0  0  0  0  0  0  0
   -2.1000    1.2708    0.0000 C   0  0  0  0  0  0  0  0  0  0  0  0
   -1.9333   -0.2042    0.0000 C   0  0  0  0  0  0  0  0  0  0  0  0
   -2.9333    0.9125    0.0000 C   0  0  0  0  0  0  0  0  0  0  0  0
   -2.8333   -0.0042    0.0000 C   0  0  0  0  0  0  0  0  0  0  0  0
   -0.5625    0.7458    0.0000 C   0  0  0  0  0  0  0  0  0  0  0  0
    0.0000    0.0000    0.0000 C   0  0  0  0  0  0  0  0  0  0  0  0
    0.9167    0.0000    0.0000 N   0  0  0  0  0  0  0  0  0  0  0  0
    1.7292    0.4958    0.0000 C   0  0  0  0  0  0  0  0  0  0  0  0
    2.5042    0.0833    0.0000 C   0  0  0  0  0  0  0  0  0  0  0  0
    3.3042    0.5458    0.0000 C   0  0  0  0  0  0  0  0  0  0  0  0
   -1.5208   -1.0500    0.0000 O   0  0  0  0  0  0  0  0  0  0  0  0
   -1.8833    2.2083    0.0000 O   0  0  0  0  0  0  0  0  0  0  0  0
   -0.4500   -0.7875    0.0000 O   0  0  0  0  0  0  0  0  0  0  0  0
    1.6792    1.4208    0.0000 C   0  0  0  0  0  0  0  0  0  0  0  0
    3.2667    1.5000    0.0000 C   0  0  0  0  0  0  0  0  0  0  0  0
    2.5375   -0.8500    0.0000 F   0  0  0  0  0  0  0  0  0  0  0  0
    2.4292    1.8958    0.0000 C   0  0  0  0  0  0  0  0  0  0  0  0
    4.0542    1.9958    0.0000 F   0  0  0  0  0  0  0  0  0  0  0  0
   -3.7833    1.2708    0.0000 C   0  0  0  0  0  0  0  0  0  0  0  0
   -3.5833   -0.5792    0.0000 C   0  0  0  0  0  0  0  0  0  0  0  0
   -4.4333   -0.1875    0.0000 C   0  0  0  0  0  0  0  0  0  0  0  0
   -4.5333    0.7000    0.0000 C   0  0  0  0  0  0  0  0  0  0  0  0
  2  1  1  0  0  0  0
  3  1  1  0  0  0  0
  4  2  1  0  0  0  0
  4  5  1  0  0  0  0
  5  3  1  0  0  0  0
  6  1  1  0  0  0  0
  7  6  1  0  0  0  0
  8  7  1  0  0  0  0
  9  8  1  0  0  0  0
 10  9  1  0  0  0  0
 11 10  2  0  0  0  0
 12  3  2  0  0  0  0
 13  2  2  0  0  0  0
 14  7  2  0  0  0  0
 15  9  2  0  0  0  0
 16 18  2  0  0  0  0
 16 11  1  0  0  0  0
 17 10  1  0  0  0  0
 18 15  1  0  0  0  0
 19 16  1  0  0  0  0
 20  4  2  0  0  0  0
 21  5  2  0  0  0  0
 22 21  1  0  0  0  0
 23 20  1  0  0  0  0
 23 22  2  0  0  0  0
M  END
>  <ID>
6598687

>  <Supplier>
ChemBridge

>  <clogP>
2.290000000000000e+000

>  <RB>
3

>  <tPSA>
6.647999999999998e+001

>  <Hacc>
3

>  <Hdon>
1

>  <LogSw>
-3.462000000000000e+000

>  <Group>
3

$$$$
6719406
 OpenBabel03312015312D

 24 25  0  0  0  0  0  0  0  0999 V2000
    5.7375   -4.8292    0.0000 S   0  0  0  0  0  0  0  0  0  0  0  0
    5.7375   -4.0042    0.0000 N   0  0  0  0  0  0  0  0  0  0  0  0
    6.4500   -3.5875    0.0000 C   0  0  0  0  0  0  0  0  0  0  0  0
    5.0167   -3.5917    0.0000 C   0  0  0  0  0  0  0  0  0  0  0  0
    7.1667   -4.0000    0.0000 C   0  0  0  0  0  0  0  0  0  0  0  0
    5.0167   -2.7625    0.0000 C   0  0  0  0  0  0  0  0  0  0  0  0
    4.3042   -2.3500    0.0000 C   0  0  0  0  0  0  0  0  0  0  0  0
    6.5292   -5.0417    0.0000 O   0  0  0  0  0  0  0  0  0  0  0  0
    6.1417   -5.5417    0.0000 O   0  0  0  0  0  0  0  0  0  0  0  0
    7.8792   -3.5875    0.0000 N   0  0  0  0  0  0  0  0  0  0  0  0
    3.5917   -2.7625    0.0000 C   0  0  0  0  0  0  0  0  0  0  0  0
    4.3042   -4.0042    0.0000 C   0  0  0  0  0  0  0  0  0  0  0  0
    7.1667   -4.8250    0.0000 O   0  0  0  0  0  0  0  0  0  0  0  0
    3.5917   -3.5917    0.0000 C   0  0  0  0  0  0  0  0  0  0  0  0
    5.0250   -5.2417    0.0000 C   0  0  0  0  0  0  0  0  0  0  0  0
    8.5917   -4.0000    0.0000 C   0  0  0  0  0  0  0  0  0  0  0  0
    4.3042   -1.5250    0.0000 Cl  0  0  0  0  0  0  0  0  0  0  0  0
   10.0167   -4.8250    0.0000 C   0  0  0  0  0  0  0  0  0  0  0  0
    2.8792   -2.3500    0.0000 Cl  0  0  0  0  0  0  0  0  0  0  0  0
   10.7292   -5.2375    0.0000 I   0  0  0  0  0  0  0  0  0  0  0  0
    9.3042   -3.5792    0.0000 C   0  0  0  0  0  0  0  0  0  0  0  0
    8.5917   -4.8250    0.0000 C   0  0  0  0  0  0  0  0  0  0  0  0
   10.0167   -4.0000    0.0000 C   0  0  0  0  0  0  0  0  0  0  0  0
    9.3000   -5.2375    0.0000 C   0  0  0  0  0  0  0  0  0  0  0  0
  2  1  1  0  0  0  0
  3  2  1  0  0  0  0
  4  2  1  0  0  0  0
  5  3  1  0  0  0  0
  6  4  1  0  0  0  0
  7  6  2  0  0  0  0
  8  1  2  0  0  0  0
  9  1  2  0  0  0  0
 10  5  1  0  0  0  0
 11 14  2  0  0  0  0
 11  7  1  0  0  0  0
 12  4  2  0  0  0  0
 13  5  2  0  0  0  0
 14 12  1  0  0  0  0
 15  1  1  0  0  0  0
 16 10  1  0  0  0  0
 17  7  1  0  0  0  0
 18 24  2  0  0  0  0
 18 23  1  0  0  0  0
 19 11  1  0  0  0  0
 20 18  1  0  0  0  0
 21 16  1  0  0  0  0
 22 16  2  0  0  0  0
 23 21  2  0  0  0  0
 24 22  1  0  0  0  0
M  END
>  <ID>
6719406

>  <Supplier>
ChemBridge

>  <clogP>
5.119999999999997e+000

>  <RB>
4

>  <tPSA>
6.647999999999998e+001

>  <Hacc>
3

>  <Hdon>
1

>  <LogSw>
-7.210000000000000e+000

>  <Group>
1

>  <Core>
084

$$$$
7572979
 OpenBabel03312015312D

 31 33  0  0  0  0  0  0  0  0999 V2000
    2.7500   -1.0042    0.0000 C   0  0  0  0  0  0  0  0  0  0  0  0
   -1.5375   -5.1167    0.0000 C   0  0  0  0  0  0  0  0  0  0  0  0
   -2.2583   -5.5292    0.0000 C   0  0  0  0  0  0  0  0  0  0  0  0
    3.4667   -1.4125    0.0000 N   0  0  0  0  0  0  0  0  0  0  0  0
   -0.8208   -3.0667    0.0000 C   0  0  0  0  0  0  0  0  0  0  0  0
    2.0375   -1.4167    0.0000 C   0  0  0  0  0  0  0  0  0  0  0  0
   -2.2583   -6.3542    0.0000 C   0  0  0  0  0  0  0  0  0  0  0  0
   -1.5333   -4.2917    0.0000 O   0  0  0  0  0  0  0  0  0  0  0  0
   -0.8250   -5.5417    0.0000 C   0  0  0  0  0  0  0  0  0  0  0  0
    2.7417   -0.1792    0.0000 O   0  0  0  0  0  0  0  0  0  0  0  0
   -0.1083   -2.6625    0.0000 O   0  0  0  0  0  0  0  0  0  0  0  0
   -1.5333   -2.6625    0.0000 O   0  0  0  0  0  0  0  0  0  0  0  0
    1.3167   -1.0042    0.0000 C   0  0  0  0  0  0  0  0  0  0  0  0
    2.0375   -2.2500    0.0000 C   0  0  0  0  0  0  0  0  0  0  0  0
    4.1792   -1.0000    0.0000 C   0  0  0  0  0  0  0  0  0  0  0  0
   -0.8125   -3.8917    0.0000 C   0  0  0  0  0  0  0  0  0  0  0  0
   -2.9708   -5.1125    0.0000 C   0  0  0  0  0  0  0  0  0  0  0  0
    0.6042   -2.2500    0.0000 C   0  0  0  0  0  0  0  0  0  0  0  0
   -1.5458   -6.7750    0.0000 C   0  0  0  0  0  0  0  0  0  0  0  0
   -0.8333   -6.3667    0.0000 C   0  0  0  0  0  0  0  0  0  0  0  0
    1.3167   -2.6625    0.0000 C   0  0  0  0  0  0  0  0  0  0  0  0
    0.6042   -1.4250    0.0000 C   0  0  0  0  0  0  0  0  0  0  0  0
    5.6042   -0.1667    0.0000 C   0  0  0  0  0  0  0  0  0  0  0  0
    4.1667   -0.1792    0.0000 C   0  0  0  0  0  0  0  0  0  0  0  0
    4.8917   -1.4125    0.0000 C   0  0  0  0  0  0  0  0  0  0  0  0
    5.6042   -0.9917    0.0000 C   0  0  0  0  0  0  0  0  0  0  0  0
    4.8792    0.2375    0.0000 C   0  0  0  0  0  0  0  0  0  0  0  0
   -2.9708   -4.2875    0.0000 C   0  0  0  0  0  0  0  0  0  0  0  0
   -3.6875   -5.5250    0.0000 C   0  0  0  0  0  0  0  0  0  0  0  0
   -0.1208   -6.7875    0.0000 C   0  0  0  0  0  0  0  0  0  0  0  0
    6.3167    0.2458    0.0000 C   0  0  0  0  0  0  0  0  0  0  0  0
  2  8  1  0  0  0  0
  3  2  1  0  0  0  0
  4  1  1  0  0  0  0
  5 11  1  0  0  0  0
  6  1  1  0  0  0  0
  7  3  2  0  0  0  0
  7 19  1  0  0  0  0
  8 16  1  0  0  0  0
  9  2  2  0  0  0  0
 10  1  2  0  0  0  0
 11 18  1  0  0  0  0
 12  5  2  0  0  0  0
 13  6  2  0  0  0  0
 14  6  1  0  0  0  0
 15  4  1  0  0  0  0
 16  5  1  0  0  0  0
 17  3  1  0  0  0  0
 18 21  1  0  0  0  0
 19 20  2  0  0  0  0
 20  9  1  0  0  0  0
 21 14  2  0  0  0  0
 22 13  1  0  0  0  0
 22 18  2  0  0  0  0
 23 26  2  0  0  0  0
 23 27  1  0  0  0  0
 24 15  1  0  0  0  0
 25 15  2  0  0  0  0
 26 25  1  0  0  0  0
 27 24  2  0  0  0  0
 28 17  1  0  0  0  0
 29 17  1  0  0  0  0
 30 20  1  0  0  0  0
 31 23  1  0  0  0  0
M  END
>  <ID>
7572979

>  <Supplier>
ChemBridge

>  <clogP>
5.744000000000000e+000

>  <RB>
7

>  <tPSA>
6.463000000000000e+001

>  <Hacc>
4

>  <Hdon>
1

>  <LogSw>
-7.443000000000001e+000

>  <Group>
2

>  <Core>
314

$$$$
6815090
 OpenBabel03312015312D

 24 27  0  0  0  0  0  0  0  0999 V2000
    5.6375   -2.5000    0.0000 N   0  0  0  0  0  0  0  0  0  0  0  0
    6.3375   -2.9042    0.0000 C   0  0  0  0  0  0  0  0  0  0  0  0
    4.2417   -1.6792    0.0000 S   0  0  0  0  0  0  0  0  0  0  0  0
    5.6417   -1.6917    0.0000 C   0  0  0  0  0  0  0  0  0  0  0  0
    4.9417   -2.9000    0.0000 C   0  0  0  0  0  0  0  0  0  0  0  0
    4.9417   -1.2792    0.0000 C   0  0  0  0  0  0  0  0  0  0  0  0
    4.2417   -2.4875    0.0000 C   0  0  0  0  0  0  0  0  0  0  0  0
    7.1042   -2.4625    0.0000 N   0  0  0  0  0  0  0  0  0  0  0  0
    6.3292   -3.7917    0.0000 O   0  0  0  0  0  0  0  0  0  0  0  0
    9.2042   -2.8667    0.0000 N   0  0  0  0  0  0  0  0  0  0  0  0
    7.8042   -2.8542    0.0000 C   0  0  0  0  0  0  0  0  0  0  0  0
    8.5042   -2.4542    0.0000 C   0  0  0  0  0  0  0  0  0  0  0  0
    6.3375   -1.2917    0.0000 C   0  0  0  0  0  0  0  0  0  0  0  0
    4.9375   -3.7042    0.0000 C   0  0  0  0  0  0  0  0  0  0  0  0
    3.5417   -2.8875    0.0000 C   0  0  0  0  0  0  0  0  0  0  0  0
    4.9500   -0.4792    0.0000 C   0  0  0  0  0  0  0  0  0  0  0  0
    9.9042   -2.4542    0.0000 C   0  0  0  0  0  0  0  0  0  0  0  0
    8.5042   -1.6500    0.0000 C   0  0  0  0  0  0  0  0  0  0  0  0
    4.2375   -4.1042    0.0000 C   0  0  0  0  0  0  0  0  0  0  0  0
    6.3417   -0.4917    0.0000 C   0  0  0  0  0  0  0  0  0  0  0  0
    5.6417   -0.0792    0.0000 C   0  0  0  0  0  0  0  0  0  0  0  0
    3.5375   -3.6917    0.0000 C   0  0  0  0  0  0  0  0  0  0  0  0
    9.9125   -1.6500    0.0000 C   0  0  0  0  0  0  0  0  0  0  0  0
    9.2042   -1.2417    0.0000 C   0  0  0  0  0  0  0  0  0  0  0  0
  2  1  1  0  0  0  0
  3  7  1  0  0  0  0
  4  1  1  0  0  0  0
  5  1  1  0  0  0  0
  6  4  2  0  0  0  0
  6  3  1  0  0  0  0
  7  5  1  0  0  0  0
  8  2  1  0  0  0  0
  9  2  2  0  0  0  0
 10 12  1  0  0  0  0
 11  8  1  0  0  0  0
 12 11  1  0  0  0  0
 13  4  1  0  0  0  0
 14  5  2  0  0  0  0
 15  7  2  0  0  0  0
 15 22  1  0  0  0  0
 16  6  1  0  0  0  0
 16 21  2  0  0  0  0
 17 10  2  0  0  0  0
 18 12  2  0  0  0  0
 19 14  1  0  0  0  0
 20 13  2  0  0  0  0
 21 20  1  0  0  0  0
 22 19  2  0  0  0  0
 23 24  2  0  0  0  0
 23 17  1  0  0  0  0
 24 18  1  0  0  0  0
M  END
>  <ID>
6815090

>  <Supplier>
ChemBridge

>  <clogP>
2.280000000000000e+000

>  <RB>
2

>  <tPSA>
4.523000000000000e+001

>  <Hacc>
2

>  <Hdon>
1

>  <LogSw>
-3.388000000000000e+000

>  <Group>
3

$$$$
7572977
 OpenBabel03312015312D

 21 22  0  0  0  0  0  0  0  0999 V2000
    5.4417   -7.0292    0.0000 S   0  0  0  0  0  0  0  0  0  0  0  0
    5.4417   -7.8542    0.0000 N   0  0  0  0  0  0  0  0  0  0  0  0
    6.1542   -8.2667    0.0000 C   0  0  0  0  0  0  0  0  0  0  0  0
    6.8750   -7.8625    0.0000 C   0  0  0  0  0  0  0  0  0  0  0  0
    5.4417   -6.2000    0.0000 C   0  0  0  0  0  0  0  0  0  0  0  0
    6.2750   -7.0292    0.0000 O   0  0  0  0  0  0  0  0  0  0  0  0
    4.6167   -7.0250    0.0000 O   0  0  0  0  0  0  0  0  0  0  0  0
    7.5917   -8.2792    0.0000 N   0  0  0  0  0  0  0  0  0  0  0  0
    6.8792   -7.0292    0.0000 O   0  0  0  0  0  0  0  0  0  0  0  0
    4.7250   -5.7875    0.0000 C   0  0  0  0  0  0  0  0  0  0  0  0
    6.1542   -5.7792    0.0000 C   0  0  0  0  0  0  0  0  0  0  0  0
    5.4292   -4.5417    0.0000 C   0  0  0  0  0  0  0  0  0  0  0  0
    6.1542   -4.9500    0.0000 C   0  0  0  0  0  0  0  0  0  0  0  0
    4.7167   -4.9625    0.0000 C   0  0  0  0  0  0  0  0  0  0  0  0
    5.4292   -3.7167    0.0000 F   0  0  0  0  0  0  0  0  0  0  0  0
    8.3125   -7.8667    0.0000 C   0  0  0  0  0  0  0  0  0  0  0  0
    4.7250   -8.2667    0.0000 C   0  0  0  0  0  0  0  0  0  0  0  0
    9.0667   -8.2000    0.0000 C   0  0  0  0  0  0  0  0  0  0  0  0
    8.3917   -7.0417    0.0000 C   0  0  0  0  0  0  0  0  0  0  0  0
    9.2125   -6.8625    0.0000 C   0  0  0  0  0  0  0  0  0  0  0  0
    9.6250   -7.5792    0.0000 C   0  0  0  0  0  0  0  0  0  0  0  0
  2  1  1  0  0  0  0
  3  2  1  0  0  0  0
  4  3  1  0  0  0  0
  5  1  1  0  0  0  0
  6  1  2  0  0  0  0
  7  1  2  0  0  0  0
  8  4  1  0  0  0  0
  9  4  2  0  0  0  0
 10  5  1  0  0  0  0
 11  5  2  0  0  0  0
 12 13  2  0  0  0  0
 13 11  1  0  0  0  0
 14 10  2  0  0  0  0
 14 12  1  0  0  0  0
 15 12  1  0  0  0  0
 16  8  1  0  0  0  0
 17  2  1  0  0  0  0
 18 16  1  0  0  0  0
 19 16  1  0  0  0  0
 20 19  1  0  0  0  0
 20 21  1  0  0  0  0
 21 18  1  0  0  0  0
M  END
>  <ID>
7572977

>  <Supplier>
ChemBridge

>  <clogP>
2.187000000000000e+000

>  <RB>
4

>  <tPSA>
6.647999999999998e+001

>  <Hacc>
4

>  <Hdon>
1

>  <LogSw>
-2.772000000000000e+000

>  <Group>
3

>  <Core>
084

$$$$
6642584
 OpenBabel03312015312D

 21 22  0  0  0  0  0  0  0  0999 V2000
   -1.8500   -1.1542    0.0000 N   0  0  0  0  0  0  0  0  0  0  0  0
   -2.6000   -1.1542    0.0000 C   0  0  0  0  0  0  0  0  0  0  0  0
   -1.4833   -0.5292    0.0000 C   0  0  0  0  0  0  0  0  0  0  0  0
    1.4875    0.7208    0.0000 N   0  0  0  0  0  0  0  0  0  0  0  0
   -1.8458    0.1208    0.0000 S   0  0  0  0  0  0  0  0  0  0  0  0
   -2.9833   -1.7792    0.0000 O   0  0  0  0  0  0  0  0  0  0  0  0
   -2.9833   -0.5167    0.0000 C   0  0  0  0  0  0  0  0  0  0  0  0
   -0.7333   -0.5292    0.0000 N   0  0  0  0  0  0  0  0  0  0  0  0
    2.9875    0.6958    0.0000 O   0  0  0  0  0  0  0  0  0  0  0  0
    0.7500    0.7125    0.0000 C   0  0  0  0  0  0  0  0  0  0  0  0
    0.3667    0.1000    0.0000 C   0  0  0  0  0  0  0  0  0  0  0  0
    1.8792    1.3500    0.0000 C   0  0  0  0  0  0  0  0  0  0  0  0
    1.8542    0.0708    0.0000 C   0  0  0  0  0  0  0  0  0  0  0  0
   -0.3708    0.1125    0.0000 C   0  0  0  0  0  0  0  0  0  0  0  0
    2.6167    1.3333    0.0000 C   0  0  0  0  0  0  0  0  0  0  0  0
    2.6000    0.0708    0.0000 C   0  0  0  0  0  0  0  0  0  0  0  0
   -2.6125    0.1333    0.0000 C   0  0  0  0  0  0  0  0  0  0  0  0
   -3.7333   -0.5000    0.0000 C   0  0  0  0  0  0  0  0  0  0  0  0
   -4.1000    0.1458    0.0000 C   0  0  0  0  0  0  0  0  0  0  0  0
   -2.9708    0.7500    0.0000 C   0  0  0  0  0  0  0  0  0  0  0  0
   -3.7208    0.7708    0.0000 C   0  0  0  0  0  0  0  0  0  0  0  0
  2  1  1  0  0  0  0
  3  1  1  0  0  0  0
  4 10  1  0  0  0  0
  5  3  2  0  0  0  0
  6  2  2  0  0  0  0
  7  2  1  0  0  0  0
  8  3  1  0  0  0  0
  9 16  1  0  0  0  0
 10 11  1  0  0  0  0
 11 14  1  0  0  0  0
 12  4  1  0  0  0  0
 13  4  1  0  0  0  0
 14  8  1  0  0  0  0
 15 12  1  0  0  0  0
 15  9  1  0  0  0  0
 16 13  1  0  0  0  0
 17  7  1  0  0  0  0
 18  7  1  0  0  0  0
 19 18  1  0  0  0  0
 20 17  1  0  0  0  0
 21 19  1  0  0  0  0
 21 20  1  0  0  0  0
M  END
>  <ID>
6642584

>  <Supplier>
ChemBridge

>  <clogP>
4.000000000000000e+000

>  <RB>
5

>  <tPSA>
5.359999999999999e+001

>  <Hacc>
3

>  <Hdon>
2

>  <LogSw>
-4.902000000000000e+000

>  <Group>
3

>  <Core>
071

$$$$
6642585
 OpenBabel03312015312D

 20 21  0  0  0  0  0  0  0  0999 V2000
    2.8167   -2.5542    0.0000 N   0  3  0  0  0  0  0  0  0  0  0  0
    7.8125   -3.7792    0.0000 N   0  0  0  0  0  0  0  0  0  0  0  0
    7.1000   -4.1917    0.0000 C   0  0  0  0  0  0  0  0  0  0  0  0
    6.3792   -3.7792    0.0000 C   0  0  0  0  0  0  0  0  0  0  0  0
    3.5375   -2.9667    0.0000 C   0  0  0  0  0  0  0  0  0  0  0  0
    9.2292   -2.9417    0.0000 N   0  0  0  0  0  0  0  0  0  0  0  0
    2.8167   -1.7292    0.0000 O   0  5  0  0  0  0  0  0  0  0  0  0
    5.6750   -4.1875    0.0000 C   0  0  0  0  0  0  0  0  0  0  0  0
    2.1042   -2.9750    0.0000 O   0  0  0  0  0  0  0  0  0  0  0  0
    7.8000   -2.9542    0.0000 C   0  0  0  0  0  0  0  0  0  0  0  0
    8.5250   -4.1792    0.0000 C   0  0  0  0  0  0  0  0  0  0  0  0
    7.1000   -5.0167    0.0000 O   0  0  0  0  0  0  0  0  0  0  0  0
    3.5417   -3.7917    0.0000 C   0  0  0  0  0  0  0  0  0  0  0  0
    4.2500   -2.5500    0.0000 C   0  0  0  0  0  0  0  0  0  0  0  0
    9.2375   -3.7667    0.0000 C   0  0  0  0  0  0  0  0  0  0  0  0
    8.5167   -2.5292    0.0000 C   0  0  0  0  0  0  0  0  0  0  0  0
    4.9625   -3.7792    0.0000 C   0  0  0  0  0  0  0  0  0  0  0  0
    4.2542   -4.1917    0.0000 C   0  0  0  0  0  0  0  0  0  0  0  0
    4.9625   -2.9542    0.0000 C   0  0  0  0  0  0  0  0  0  0  0  0
    9.9417   -2.5292    0.0000 C   0  0  0  0  0  0  0  0  0  0  0  0
  2  3  1  0  0  0  0
  3  4  1  0  0  0  0
  4  8  2  0  0  0  0
  5  1  1  0  0  0  0
  6 15  1  0  0  0  0
  7  1  1  0  0  0  0
  8 17  1  0  0  0  0
  9  1  2  0  0  0  0
 10  2  1  0  0  0  0
 11  2  1  0  0  0  0
 12  3  2  0  0  0  0
 13  5  1  0  0  0  0
 14  5  2  0  0  0  0
 15 11  1  0  0  0  0
 16 10  1  0  0  0  0
 16  6  1  0  0  0  0
 17 19  2  0  0  0  0
 17 18  1  0  0  0  0
 18 13  2  0  0  0  0
 19 14  1  0  0  0  0
 20  6  1  0  0  0  0
M  CHG  2   1   1   7  -1
M  END
>  <ID>
6642585

>  <Supplier>
ChemBridge

>  <clogP>
2.080000000000000e+000

>  <RB>
2

>  <tPSA>
6.669000000000000e+001

>  <Hacc>
4

>  <Hdon>
0

>  <LogSw>
-3.375000000000000e+000

>  <Group>
3

>  <Core>
435

$$$$
7934675
 OpenBabel03312015312D

 23 25  0  0  0  0  0  0  0  0999 V2000
    2.0417    0.8750    0.0000 C   0  0  0  0  0  0  0  0  0  0  0  0
    2.3417    1.5625    0.0000 N   0  0  0  0  0  0  0  0  0  0  0  0
    1.2917    0.9583    0.0000 O   0  0  0  0  0  0  0  0  0  0  0  0
    1.7917    2.0625    0.0000 C   0  0  0  0  0  0  0  0  0  0  0  0
    1.1417    1.6875    0.0000 C   0  0  0  0  0  0  0  0  0  0  0  0
    3.0792    1.7208    0.0000 C   0  0  0  0  0  0  0  0  0  0  0  0
    5.5500    0.9125    0.0000 C   0  0  0  0  0  0  0  0  0  0  0  0
    4.8167    0.7583    0.0000 N   0  0  0  0  0  0  0  0  0  0  0  0
    4.3167    1.3208    0.0000 C   0  0  0  0  0  0  0  0  0  0  0  0
    3.5792    1.1583    0.0000 C   0  0  0  0  0  0  0  0  0  0  0  0
    2.4167    0.2250    0.0000 O   0  0  0  0  0  0  0  0  0  0  0  0
    6.0542    0.3583    0.0000 C   0  0  0  0  0  0  0  0  0  0  0  0
    5.7792    1.6333    0.0000 C   0  0  0  0  0  0  0  0  0  0  0  0
    4.5500    2.0333    0.0000 O   0  0  0  0  0  0  0  0  0  0  0  0
    6.7875    0.5125    0.0000 C   0  0  0  0  0  0  0  0  0  0  0  0
    6.5167    1.7833    0.0000 C   0  0  0  0  0  0  0  0  0  0  0  0
    7.0167    1.2250    0.0000 C   0  0  0  0  0  0  0  0  0  0  0  0
    1.7917    2.8125    0.0000 C   0  0  0  0  0  0  0  0  0  0  0  0
    0.4917    2.0625    0.0000 C   0  0  0  0  0  0  0  0  0  0  0  0
    5.8167   -0.3542    0.0000 C   0  0  0  0  0  0  0  0  0  0  0  0
    6.7500    2.4958    0.0000 C   0  0  0  0  0  0  0  0  0  0  0  0
    1.1417    3.1875    0.0000 C   0  0  0  0  0  0  0  0  0  0  0  0
    0.4917    2.8125    0.0000 C   0  0  0  0  0  0  0  0  0  0  0  0
  2  1  1  0  0  0  0
  3  1  1  0  0  0  0
  4  2  1  0  0  0  0
  5  3  1  0  0  0  0
  5  4  2  0  0  0  0
  6  2  1  0  0  0  0
  7  8  1  0  0  0  0
  8  9  1  0  0  0  0
  9 10  1  0  0  0  0
 10  6  1  0  0  0  0
 11  1  2  0  0  0  0
 12  7  2  0  0  0  0
 13  7  1  0  0  0  0
 14  9  2  0  0  0  0
 15 12  1  0  0  0  0
 15 17  2  0  0  0  0
 16 13  2  0  0  0  0
 17 16  1  0  0  0  0
 18  4  1  0  0  0  0
 19  5  1  0  0  0  0
 20 12  1  0  0  0  0
 21 16  1  0  0  0  0
 22 18  2  0  0  0  0
 23 19  2  0  0  0  0
 23 22  1  0  0  0  0
M  END
>  <ID>
7934675

>  <Supplier>
ChemBridge

>  <clogP>
2.729000000000000e+000

>  <RB>
4

>  <tPSA>
6.424000000000000e+001

>  <Hacc>
3

>  <Hdon>
1

>  <LogSw>
-3.794000000000000e+000

>  <Group>
1

$$$$
7801560
 OpenBabel03312015312D

 32 34  0  0  0  0  0  0  0  0999 V2000
   -9.8625   -0.2542    0.0000 C   0  0  0  0  0  0  0  0  0  0  0  0
   -8.8375    2.2458    0.0000 S   0  0  0  0  0  0  0  0  0  0  0  0
  -12.4792   -0.0917    0.0000 C   0  0  0  0  0  0  0  0  0  0  0  0
  -10.8792    3.9208    0.0000 C   0  0  0  0  0  0  0  0  0  0  0  0
  -13.1292    2.5333    0.0000 C   0  0  0  0  0  0  0  0  0  0  0  0
  -13.5417   10.6667    0.0000 N   0  3  0  0  0  0  0  0  0  0  0  0
   -8.3792   -2.7042    0.0000 C   0  0  0  0  0  0  0  0  0  0  0  0
  -10.9625    6.7417    0.0000 C   0  0  0  0  0  0  0  0  0  0  0  0
  -13.3375    7.9250    0.0000 C   0  0  0  0  0  0  0  0  0  0  0  0
   -1.6708   -5.0000    0.0000 C   0  0  0  0  0  0  0  0  0  0  0  0
   -5.6958   -2.7042    0.0000 N   0  0  0  0  0  0  0  0  0  0  0  0
  -15.5875    3.8375    0.0000 C   0  0  0  0  0  0  0  0  0  0  0  0
   -4.3833   -5.0000    0.0000 N   0  0  0  0  0  0  0  0  0  0  0  0
  -11.3292   12.1042    0.0000 O   0  5  0  0  0  0  0  0  0  0  0  0
   10.5500   -7.3792    0.0000 C   0  0  0  0  0  0  0  0  0  0  0  0
  -16.0000   11.7667    0.0000 O   0  0  0  0  0  0  0  0  0  0  0  0
   -0.2833   -2.6500    0.0000 S   0  0  0  0  0  0  0  0  0  0  0  0
   -9.6542   -5.1250    0.0000 O   0  0  0  0  0  0  0  0  0  0  0  0
  -15.5875    6.6542    0.0000 C   0  0  0  0  0  0  0  0  0  0  0  0
   11.9167   -9.7042    0.0000 C   0  0  0  0  0  0  0  0  0  0  0  0
    7.8292   -7.3792    0.0000 C   0  0  0  0  0  0  0  0  0  0  0  0
  -14.1917   -2.2625    0.0000 Cl  0  0  0  0  0  0  0  0  0  0  0  0
   -0.2708   -7.2875    0.0000 N   0  0  0  0  0  0  0  0  0  0  0  0
   10.5500  -12.1042    0.0000 C   0  0  0  0  0  0  0  0  0  0  0  0
    6.4500   -9.7042    0.0000 C   0  0  0  0  0  0  0  0  0  0  0  0
    7.8417  -12.1042    0.0000 C   0  0  0  0  0  0  0  0  0  0  0  0
   11.8917   -5.0292    0.0000 O   0  0  0  0  0  0  0  0  0  0  0  0
   14.6292   -9.6917    0.0000 O   0  0  0  0  0  0  0  0  0  0  0  0
    2.4542   -7.3417    0.0000 C   0  0  0  0  0  0  0  0  0  0  0  0
    3.7375   -9.6792    0.0000 C   0  0  0  0  0  0  0  0  0  0  0  0
   14.6042   -5.0167    0.0000 C   0  0  0  0  0  0  0  0  0  0  0  0
   16.0000  -12.0292    0.0000 C   0  0  0  0  0  0  0  0  0  0  0  0
  2  1  1  0  0  0  0
  3  1  2  0  0  0  0
  4  2  1  0  0  0  0
  5  3  1  0  0  0  0
  5  4  2  0  0  0  0
  6  9  1  0  0  0  0
  7  1  1  0  0  0  0
  8  4  1  0  0  0  0
  9  8  2  0  0  0  0
 10 13  1  0  0  0  0
 11  7  1  0  0  0  0
 12  5  1  0  0  0  0
 13 11  1  0  0  0  0
 14  6  1  0  0  0  0
 15 21  2  0  0  0  0
 16  6  2  0  0  0  0
 17 10  2  0  0  0  0
 18  7  2  0  0  0  0
 19 12  2  0  0  0  0
 19  9  1  0  0  0  0
 20 24  2  0  0  0  0
 20 15  1  0  0  0  0
 21 25  1  0  0  0  0
 22  3  1  0  0  0  0
 23 10  1  0  0  0  0
 24 26  1  0  0  0  0
 25 30  1  0  0  0  0
 26 25  2  0  0  0  0
 27 15  1  0  0  0  0
 28 20  1  0  0  0  0
 29 23  1  0  0  0  0
 30 29  1  0  0  0  0
 31 27  1  0  0  0  0
 32 28  1  0  0  0  0
M  CHG  2   6   1  14  -1
M  END
>  <ID>
7801560

>  <Supplier>
ChemBridge

>  <clogP>
3.540000000000000e+000

>  <RB>
5

>  <tPSA>
1.147600000000000e+002

>  <Hacc>
5

>  <Hdon>
3

>  <LogSw>
-6.221000000000000e+000

>  <Group>
1

>  <Core>
351

$$$$
7514290
 OpenBabel03312015312D

 31 33  0  0  0  0  0  0  0  0999 V2000
    6.7500   -1.8292    0.0000 N   0  0  0  0  0  0  0  0  0  0  0  0
    7.4292   -1.3542    0.0000 C   0  0  0  0  0  0  0  0  0  0  0  0
    6.0792   -1.3417    0.0000 C   0  0  0  0  0  0  0  0  0  0  0  0
    7.1875   -0.5542    0.0000 N   0  0  0  0  0  0  0  0  0  0  0  0
    6.3542   -0.5500    0.0000 N   0  0  0  0  0  0  0  0  0  0  0  0
    9.7500   -4.2167    0.0000 C   0  0  0  0  0  0  0  0  0  0  0  0
    8.9042   -4.9667    0.0000 C   0  0  0  0  0  0  0  0  0  0  0  0
    3.9792   -1.0042    0.0000 C   0  0  0  0  0  0  0  0  0  0  0  0
    7.8250   -4.6042    0.0000 N   0  0  0  0  0  0  0  0  0  0  0  0
    3.5000   -0.3292    0.0000 C   0  0  0  0  0  0  0  0  0  0  0  0
    8.2167   -1.6167    0.0000 S   0  0  0  0  0  0  0  0  0  0  0  0
    7.5917   -3.4917    0.0000 C   0  0  0  0  0  0  0  0  0  0  0  0
    4.8125   -0.9167    0.0000 O   0  0  0  0  0  0  0  0  0  0  0  0
    2.6792   -0.4042    0.0000 C   0  0  0  0  0  0  0  0  0  0  0  0
    5.2917   -1.5917    0.0000 C   0  0  0  0  0  0  0  0  0  0  0  0
   10.8292   -4.5792    0.0000 C   0  0  0  0  0  0  0  0  0  0  0  0
    3.6417   -1.7542    0.0000 C   0  0  0  0  0  0  0  0  0  0  0  0
    6.5125   -3.1292    0.0000 O   0  0  0  0  0  0  0  0  0  0  0  0
    8.4417   -2.7292    0.0000 C   0  0  0  0  0  0  0  0  0  0  0  0
    9.5292   -3.1125    0.0000 Cl  0  0  0  0  0  0  0  0  0  0  0  0
    6.7417   -2.6625    0.0000 C   0  0  0  0  0  0  0  0  0  0  0  0
    3.8375    0.4250    0.0000 C   0  0  0  0  0  0  0  0  0  0  0  0
    2.3292   -1.1667    0.0000 C   0  0  0  0  0  0  0  0  0  0  0  0
    2.8125   -1.8417    0.0000 C   0  0  0  0  0  0  0  0  0  0  0  0
   11.6667   -3.8375    0.0000 Cl  0  0  0  0  0  0  0  0  0  0  0  0
    9.1250   -6.0750    0.0000 C   0  0  0  0  0  0  0  0  0  0  0  0
   10.2042   -6.4375    0.0000 C   0  0  0  0  0  0  0  0  0  0  0  0
   11.0417   -5.6875    0.0000 C   0  0  0  0  0  0  0  0  0  0  0  0
    4.6625    0.5083    0.0000 C   0  0  0  0  0  0  0  0  0  0  0  0
    3.3542    1.0958    0.0000 C   0  0  0  0  0  0  0  0  0  0  0  0
    2.4667   -2.5917    0.0000 C   0  0  0  0  0  0  0  0  0  0  0  0
  2  1  1  0  0  0  0
  3  1  1  0  0  0  0
  4  2  2  0  0  0  0
  5  3  2  0  0  0  0
  5  4  1  0  0  0  0
  6  7  2  0  0  0  0
  7  9  1  0  0  0  0
  8 13  1  0  0  0  0
  9 12  1  0  0  0  0
 10  8  2  0  0  0  0
 11  2  1  0  0  0  0
 12 19  1  0  0  0  0
 13 15  1  0  0  0  0
 14 10  1  0  0  0  0
 14 23  2  0  0  0  0
 15  3  1  0  0  0  0
 16  6  1  0  0  0  0
 17  8  1  0  0  0  0
 18 12  2  0  0  0  0
 19 11  1  0  0  0  0
 20  6  1  0  0  0  0
 21  1  1  0  0  0  0
 22 10  1  0  0  0  0
 23 24  1  0  0  0  0
 24 17  2  0  0  0  0
 25 16  1  0  0  0  0
 26  7  1  0  0  0  0
 27 26  2  0  0  0  0
 28 27  1  0  0  0  0
 28 16  2  0  0  0  0
 29 22  1  0  0  0  0
 30 22  1  0  0  0  0
 31 24  1  0  0  0  0
M  END
>  <ID>
7514290

>  <Supplier>
ChemBridge

>  <clogP>
4.153999999999997e+000

>  <RB>
7

>  <tPSA>
6.904000000000001e+001

>  <Hacc>
5

>  <Hdon>
1

>  <LogSw>
-7.573000000000000e+000

>  <Group>
1

>  <Core>
009

$$$$
7514295
 OpenBabel03312015312D

 28 30  0  0  0  0  0  0  0  0999 V2000
    1.5167   -9.0167    0.0000 C   0  0  0  0  0  0  0  0  0  0  0  0
    1.6875   -9.7625    0.0000 C   0  0  0  0  0  0  0  0  0  0  0  0
    4.7667   -6.2875    0.0000 N   0  0  0  0  0  0  0  0  0  0  0  0
    2.4917   -7.2917    0.0000 C   0  0  0  0  0  0  0  0  0  0  0  0
    1.9292   -7.7917    0.0000 C   0  0  0  0  0  0  0  0  0  0  0  0
    5.5042   -6.1250    0.0000 N   0  0  0  0  0  0  0  0  0  0  0  0
    2.0792   -8.5250    0.0000 N   0  0  0  0  0  0  0  0  0  0  0  0
    3.2000   -7.5292    0.0000 O   0  0  0  0  0  0  0  0  0  0  0  0
    4.3917   -5.6292    0.0000 C   0  0  0  0  0  0  0  0  0  0  0  0
    1.1292  -10.2875    0.0000 C   0  0  0  0  0  0  0  0  0  0  0  0
    3.6417   -6.9292    0.0000 C   0  0  0  0  0  0  0  0  0  0  0  0
    0.7792   -8.7917    0.0000 C   0  0  0  0  0  0  0  0  0  0  0  0
    4.8917   -5.0750    0.0000 C   0  0  0  0  0  0  0  0  0  0  0  0
    2.5000   -6.5500    0.0000 C   0  0  0  0  0  0  0  0  0  0  0  0
    5.5792   -5.3792    0.0000 C   0  0  0  0  0  0  0  0  0  0  0  0
    0.3917  -10.0667    0.0000 C   0  0  0  0  0  0  0  0  0  0  0  0
    0.2250   -9.3167    0.0000 C   0  0  0  0  0  0  0  0  0  0  0  0
    3.2125   -6.3250    0.0000 C   0  0  0  0  0  0  0  0  0  0  0  0
    4.3917   -6.9292    0.0000 C   0  0  0  0  0  0  0  0  0  0  0  0
    2.4042   -9.9792    0.0000 C   0  0  0  0  0  0  0  0  0  0  0  0
    1.2167   -7.5542    0.0000 O   0  0  0  0  0  0  0  0  0  0  0  0
    2.9542   -9.4667    0.0000 O   0  0  0  0  0  0  0  0  0  0  0  0
    4.7417   -4.3292    0.0000 Cl  0  0  0  0  0  0  0  0  0  0  0  0
   -0.1500  -10.5792    0.0000 O   0  0  0  0  0  0  0  0  0  0  0  0
   -0.4958   -9.1042    0.0000 O   0  0  0  0  0  0  0  0  0  0  0  0
    2.5750  -10.7125    0.0000 C   0  0  0  0  0  0  0  0  0  0  0  0
   -0.8708  -10.3625    0.0000 C   0  0  0  0  0  0  0  0  0  0  0  0
   -0.6625   -8.3667    0.0000 C   0  0  0  0  0  0  0  0  0  0  0  0
  2  1  2  0  0  0  0
  3 19  1  0  0  0  0
  4  5  1  0  0  0  0
  5  7  1  0  0  0  0
  6  3  1  0  0  0  0
  7  1  1  0  0  0  0
  8  4  1  0  0  0  0
  9  3  1  0  0  0  0
 10  2  1  0  0  0  0
 11  8  1  0  0  0  0
 11 18  2  0  0  0  0
 12  1  1  0  0  0  0
 13  9  2  0  0  0  0
 14  4  2  0  0  0  0
 15  6  2  0  0  0  0
 15 13  1  0  0  0  0
 16 17  1  0  0  0  0
 16 10  2  0  0  0  0
 17 12  2  0  0  0  0
 18 14  1  0  0  0  0
 19 11  1  0  0  0  0
 20  2  1  0  0  0  0
 21  5  2  0  0  0  0
 22 20  2  0  0  0  0
 23 13  1  0  0  0  0
 24 16  1  0  0  0  0
 25 17  1  0  0  0  0
 26 20  1  0  0  0  0
 27 24  1  0  0  0  0
 28 25  1  0  0  0  0
M  END
>  <ID>
7514295

>  <Supplier>
ChemBridge

>  <clogP>
2.662000000000000e+000

>  <RB>
5

>  <tPSA>
9.559000000000000e+001

>  <Hacc>
6

>  <Hdon>
1

>  <LogSw>
-4.596000000000000e+000

>  <Group>
3

$$$$
7934673
 OpenBabel03312015312D

 31 32  0  0  0  0  0  0  0  0999 V2000
    1.9417    1.9875    0.0000 S   0  0  0  0  0  0  0  0  0  0  0  0
    2.6917    1.9875    0.0000 C   0  0  0  0  0  0  0  0  0  0  0  0
    1.7417    2.7125    0.0000 N   0  0  0  0  0  0  0  0  0  0  0  0
    3.0667    1.3375    0.0000 C   0  0  0  0  0  0  0  0  0  0  0  0
    3.8167    1.3375    0.0000 C   0  0  0  0  0  0  0  0  0  0  0  0
    1.2042    1.8583    0.0000 O   0  0  0  0  0  0  0  0  0  0  0  0
    2.0042    1.2375    0.0000 O   0  0  0  0  0  0  0  0  0  0  0  0
    9.4417    3.2833    0.0000 C   0  0  0  0  0  0  0  0  0  0  0  0
    6.0667    2.6458    0.0000 C   0  0  0  0  0  0  0  0  0  0  0  0
    4.1917    1.9875    0.0000 C   0  0  0  0  0  0  0  0  0  0  0  0
    9.8167    3.9333    0.0000 C   0  0  0  0  0  0  0  0  0  0  0  0
    4.9417    1.9875    0.0000 O   0  0  0  0  0  0  0  0  0  0  0  0
    8.6917    3.2833    0.0000 C   0  0  0  0  0  0  0  0  0  0  0  0
    3.0667    2.6458    0.0000 C   0  0  0  0  0  0  0  0  0  0  0  0
    6.4417    1.9875    0.0000 O   0  0  0  0  0  0  0  0  0  0  0  0
    3.8167    2.6458    0.0000 C   0  0  0  0  0  0  0  0  0  0  0  0
    9.4417    4.5792    0.0000 C   0  0  0  0  0  0  0  0  0  0  0  0
    6.4417    3.2833    0.0000 N   0  0  0  0  0  0  0  0  0  0  0  0
    5.3167    2.6458    0.0000 C   0  0  0  0  0  0  0  0  0  0  0  0
    4.1917    0.6875    0.0000 Cl  0  0  0  0  0  0  0  0  0  0  0  0
    8.3167    3.9333    0.0000 C   0  0  0  0  0  0  0  0  0  0  0  0
    8.6917    4.5792    0.0000 C   0  0  0  0  0  0  0  0  0  0  0  0
    9.8167    2.6458    0.0000 O   0  0  0  0  0  0  0  0  0  0  0  0
   10.5667    3.9333    0.0000 O   0  0  0  0  0  0  0  0  0  0  0  0
    7.1917    3.2833    0.0000 C   0  0  0  0  0  0  0  0  0  0  0  0
    1.0167    2.9083    0.0000 C   0  0  0  0  0  0  0  0  0  0  0  0
    7.5667    3.9333    0.0000 C   0  0  0  0  0  0  0  0  0  0  0  0
    9.4417    1.9875    0.0000 C   0  0  0  0  0  0  0  0  0  0  0  0
   10.9417    4.5792    0.0000 C   0  0  0  0  0  0  0  0  0  0  0  0
    0.8292    3.6333    0.0000 C   0  0  0  0  0  0  0  0  0  0  0  0
    0.4917    2.3750    0.0000 C   0  0  0  0  0  0  0  0  0  0  0  0
  2  1  1  0  0  0  0
  3  1  1  0  0  0  0
  4  2  2  0  0  0  0
  5  4  1  0  0  0  0
  5 10  2  0  0  0  0
  6  1  2  0  0  0  0
  7  1  2  0  0  0  0
  8 13  1  0  0  0  0
  9 19  1  0  0  0  0
 10 16  1  0  0  0  0
 11 17  1  0  0  0  0
 11  8  2  0  0  0  0
 12 10  1  0  0  0  0
 13 21  2  0  0  0  0
 14  2  1  0  0  0  0
 15  9  2  0  0  0  0
 16 14  2  0  0  0  0
 17 22  2  0  0  0  0
 18  9  1  0  0  0  0
 19 12  1  0  0  0  0
 20  5  1  0  0  0  0
 21 27  1  0  0  0  0
 22 21  1  0  0  0  0
 23  8  1  0  0  0  0
 24 11  1  0  0  0  0
 25 18  1  0  0  0  0
 26  3  1  0  0  0  0
 27 25  1  0  0  0  0
 28 23  1  0  0  0  0
 29 24  1  0  0  0  0
 30 26  1  0  0  0  0
 31 26  1  0  0  0  0
M  END
>  <ID>
7934673

>  <Supplier>
ChemBridge

>  <clogP>
3.234000000000000e+000

>  <RB>
7

>  <tPSA>
1.029600000000000e+002

>  <Hacc>
7

>  <Hdon>
2

>  <LogSw>
-5.395000000000000e+000

>  <Group>
1

>  <Core>
315

$$$$
5175669
 OpenBabel03312015312D

 28 31  0  0  0  0  0  0  0  0999 V2000
   -0.1208    2.2208    0.0000 C   0  0  0  0  0  0  0  0  0  0  0  0
    0.3167    2.7083    0.0000 N   0  0  0  0  0  0  0  0  0  0  0  0
   -0.7458    2.4625    0.0000 N   0  0  0  0  0  0  0  0  0  0  0  0
   -0.6833    3.1208    0.0000 C   0  0  0  0  0  0  0  0  0  0  0  0
   -0.0458    3.3000    0.0000 C   0  0  0  0  0  0  0  0  0  0  0  0
   -0.0458    1.5625    0.0000 C   0  0  0  0  0  0  0  0  0  0  0  0
    0.9542    2.8833    0.0000 C   0  0  0  0  0  0  0  0  0  0  0  0
   -1.3625    2.3125    0.0000 C   0  0  0  0  0  0  0  0  0  0  0  0
    0.1000    0.2125    0.0000 C   0  0  0  0  0  0  0  0  0  0  0  0
    0.1542   -0.4500    0.0000 N   0  0  0  0  0  0  0  0  0  0  0  0
    0.5792    1.2958    0.0000 C   0  0  0  0  0  0  0  0  0  0  0  0
   -0.5833    1.1458    0.0000 C   0  0  0  0  0  0  0  0  0  0  0  0
    0.6792    0.6333    0.0000 C   0  0  0  0  0  0  0  0  0  0  0  0
   -0.5000    0.4833    0.0000 C   0  0  0  0  0  0  0  0  0  0  0  0
    0.7542   -0.7500    0.0000 C   0  0  0  0  0  0  0  0  0  0  0  0
   -0.4000   -0.8042    0.0000 C   0  0  0  0  0  0  0  0  0  0  0  0
    1.1542    3.4833    0.0000 C   0  0  0  0  0  0  0  0  0  0  0  0
   -1.5458    1.6833    0.0000 C   0  0  0  0  0  0  0  0  0  0  0  0
    1.4167    2.4000    0.0000 C   0  0  0  0  0  0  0  0  0  0  0  0
   -1.8208    2.7958    0.0000 C   0  0  0  0  0  0  0  0  0  0  0  0
    0.8167   -1.3792    0.0000 C   0  0  0  0  0  0  0  0  0  0  0  0
   -1.0000   -0.5375    0.0000 C   0  0  0  0  0  0  0  0  0  0  0  0
    1.8000    3.6708    0.0000 C   0  0  0  0  0  0  0  0  0  0  0  0
   -2.1833    1.5000    0.0000 C   0  0  0  0  0  0  0  0  0  0  0  0
   -2.4625    2.6125    0.0000 C   0  0  0  0  0  0  0  0  0  0  0  0
    2.0375    2.5208    0.0000 C   0  0  0  0  0  0  0  0  0  0  0  0
   -2.6458    1.9833    0.0000 C   0  0  0  0  0  0  0  0  0  0  0  0
    2.2375    3.1500    0.0000 C   0  0  0  0  0  0  0  0  0  0  0  0
  2  1  1  0  0  0  0
  3  1  1  0  0  0  0
  4  3  1  0  0  0  0
  4  5  1  0  0  0  0
  5  2  1  0  0  0  0
  6  1  1  0  0  0  0
  7  2  1  0  0  0  0
  8  3  1  0  0  0  0
  9 14  1  0  0  0  0
  9 13  2  0  0  0  0
 10  9  1  0  0  0  0
 11  6  2  0  0  0  0
 12  6  1  0  0  0  0
 13 11  1  0  0  0  0
 14 12  2  0  0  0  0
 15 10  1  0  0  0  0
 16 10  1  0  0  0  0
 17  7  2  0  0  0  0
 18  8  2  0  0  0  0
 19  7  1  0  0  0  0
 20  8  1  0  0  0  0
 21 15  1  0  0  0  0
 22 16  1  0  0  0  0
 23 17  1  0  0  0  0
 24 18  1  0  0  0  0
 25 20  2  0  0  0  0
 26 19  2  0  0  0  0
 27 25  1  0  0  0  0
 27 24  2  0  0  0  0
 28 26  1  0  0  0  0
 28 23  2  0  0  0  0
M  END
>  <ID>
5175669

>  <Supplier>
ChemBridge

>  <clogP>
7.260000000000000e+000

>  <RB>
3

>  <tPSA>
9.720000000000001e+000

>  <Hacc>
0

>  <Hdon>
0

>  <LogSw>
-8.109000000000000e+000

>  <Group>
3

>  <Core>
397

$$$$
5477838
 OpenBabel03312015312D

 28 32  0  0  0  0  0  0  0  0999 V2000
   -1.2500    0.9125    0.0000 C   0  0  0  0  0  0  0  0  0  0  0  0
   -1.2500   -0.0042    0.0000 C   0  0  0  0  0  0  0  0  0  0  0  0
   -2.0500    1.3708    0.0000 C   0  0  0  0  0  0  0  0  0  0  0  0
   -0.4708    1.3708    0.0000 C   0  0  0  0  0  0  0  0  0  0  0  0
   -0.4708   -0.4667    0.0000 C   0  0  0  0  0  0  0  0  0  0  0  0
   -2.0500   -0.4667    0.0000 C   0  0  0  0  0  0  0  0  0  0  0  0
   -0.4708    2.2958    0.0000 N   0  0  0  0  0  0  0  0  0  0  0  0
   -2.0500    2.2958    0.0000 O   0  0  0  0  0  0  0  0  0  0  0  0
    0.3500   -0.0042    0.0000 C   0  0  0  0  0  0  0  0  0  0  0  0
    0.3500    0.9125    0.0000 C   0  0  0  0  0  0  0  0  0  0  0  0
   -2.8500    0.9125    0.0000 C   0  0  0  0  0  0  0  0  0  0  0  0
   -2.8500   -0.0042    0.0000 C   0  0  0  0  0  0  0  0  0  0  0  0
   -0.4833   -1.4042    0.0000 N   0  0  0  0  0  0  0  0  0  0  0  0
   -2.0500   -1.3875    0.0000 O   0  0  0  0  0  0  0  0  0  0  0  0
    1.1500    1.3958    0.0000 N   0  0  0  0  0  0  0  0  0  0  0  0
    0.5667   -1.4042    0.0000 C   0  0  0  0  0  0  0  0  0  0  0  0
    2.4875   -1.3875    0.0000 C   0  0  0  0  0  0  0  0  0  0  0  0
   -3.6333    1.3708    0.0000 C   0  0  0  0  0  0  0  0  0  0  0  0
    1.0375   -2.2042    0.0000 C   0  0  0  0  0  0  0  0  0  0  0  0
    1.0375   -0.5500    0.0000 C   0  0  0  0  0  0  0  0  0  0  0  0
   -3.6333   -0.4667    0.0000 C   0  0  0  0  0  0  0  0  0  0  0  0
    2.0000   -0.5500    0.0000 C   0  0  0  0  0  0  0  0  0  0  0  0
    2.0000   -2.2042    0.0000 C   0  0  0  0  0  0  0  0  0  0  0  0
    1.9500    0.9333    0.0000 C   0  0  0  0  0  0  0  0  0  0  0  0
    3.4375   -1.3875    0.0000 C   0  0  0  0  0  0  0  0  0  0  0  0
   -4.4333    0.9125    0.0000 C   0  0  0  0  0  0  0  0  0  0  0  0
   -4.4333   -0.0042    0.0000 C   0  0  0  0  0  0  0  0  0  0  0  0
    1.1500    2.3125    0.0000 H   0  0  0  0  0  0  0  0  0  0  0  0
  2  1  1  0  0  0  0
  3  1  2  0  0  0  0
  4  1  1  0  0  0  0
  5  2  2  0  0  0  0
  6  2  1  0  0  0  0
  7  4  2  0  0  0  0
  7  8  1  0  0  0  0
  8  3  1  0  0  0  0
  9 10  2  0  0  0  0
  9  5  1  0  0  0  0
 10  4  1  0  0  0  0
 11  3  1  0  0  0  0
 12 11  2  0  0  0  0
 12  6  1  0  0  0  0
 13  5  1  0  0  0  0
 14  6  2  0  0  0  0
 15 10  1  0  0  0  0
 16 13  1  0  0  0  0
 17 22  1  0  0  0  0
 17 23  2  0  0  0  0
 18 11  1  0  0  0  0
 19 16  2  0  0  0  0
 20 16  1  0  0  0  0
 21 12  1  0  0  0  0
 21 27  2  0  0  0  0
 22 20  2  0  0  0  0
 23 19  1  0  0  0  0
 24 15  1  0  0  0  0
 25 17  1  0  0  0  0
 26 18  2  0  0  0  0
 27 26  1  0  0  0  0
 28 15  1  0  0  0  0
M  END
>  <ID>
5477838

>  <Supplier>
ChemBridge

>  <clogP>
5.710000000000000e+000

>  <RB>
2

>  <tPSA>
6.716000000000000e+001

>  <Hacc>
3

>  <Hdon>
2

>  <LogSw>
-7.778000000000001e+000

>  <Group>
3

>  <Core>
214

$$$$
7784175
 OpenBabel03312015312D

 26 28  0  0  0  0  0  0  0  0999 V2000
    2.4250   -0.8375    0.0000 C   0  0  0  0  0  0  0  0  0  0  0  0
    1.9792   -0.2292    0.0000 N   0  0  0  0  0  0  0  0  0  0  0  0
    3.5500   -1.4875    0.0000 C   0  0  0  0  0  0  0  0  0  0  0  0
    4.3000   -1.4875    0.0000 N   0  0  0  0  0  0  0  0  0  0  0  0
    3.1750   -0.8375    0.0000 N   0  0  0  0  0  0  0  0  0  0  0  0
    1.2625   -0.4625    0.0000 C   0  0  0  0  0  0  0  0  0  0  0  0
    4.6750   -2.1375    0.0000 C   0  0  0  0  0  0  0  0  0  0  0  0
    1.9792   -1.4417    0.0000 S   0  0  0  0  0  0  0  0  0  0  0  0
    5.4250   -2.1375    0.0000 C   0  0  0  0  0  0  0  0  0  0  0  0
    1.2625   -1.2167    0.0000 C   0  0  0  0  0  0  0  0  0  0  0  0
    3.1750   -2.1375    0.0000 S   0  0  0  0  0  0  0  0  0  0  0  0
    0.6542   -0.0167    0.0000 C   0  0  0  0  0  0  0  0  0  0  0  0
    5.8000   -2.7875    0.0000 C   0  0  0  0  0  0  0  0  0  0  0  0
    5.8000   -1.4875    0.0000 C   0  0  0  0  0  0  0  0  0  0  0  0
    4.3000   -2.7875    0.0000 O   0  0  0  0  0  0  0  0  0  0  0  0
    6.5500   -2.7875    0.0000 C   0  0  0  0  0  0  0  0  0  0  0  0
    6.5500   -1.4875    0.0000 C   0  0  0  0  0  0  0  0  0  0  0  0
    0.7292    0.7250    0.0000 C   0  0  0  0  0  0  0  0  0  0  0  0
   -0.0333   -0.3250    0.0000 C   0  0  0  0  0  0  0  0  0  0  0  0
    6.9250   -2.1375    0.0000 C   0  0  0  0  0  0  0  0  0  0  0  0
   -0.5583    0.8625    0.0000 C   0  0  0  0  0  0  0  0  0  0  0  0
   -0.6333    0.1208    0.0000 C   0  0  0  0  0  0  0  0  0  0  0  0
    0.1292    1.1708    0.0000 C   0  0  0  0  0  0  0  0  0  0  0  0
   -1.1625    1.3083    0.0000 Cl  0  0  0  0  0  0  0  0  0  0  0  0
    6.9250   -3.4292    0.0000 C   0  0  0  0  0  0  0  0  0  0  0  0
    6.9250   -0.8375    0.0000 C   0  0  0  0  0  0  0  0  0  0  0  0
  2  1  2  0  0  0  0
  3  5  1  0  0  0  0
  4  3  1  0  0  0  0
  5  1  1  0  0  0  0
  6  2  1  0  0  0  0
  6 10  2  0  0  0  0
  7  4  1  0  0  0  0
  8  1  1  0  0  0  0
  9  7  1  0  0  0  0
 10  8  1  0  0  0  0
 11  3  2  0  0  0  0
 12  6  1  0  0  0  0
 13  9  1  0  0  0  0
 14  9  2  0  0  0  0
 15  7  2  0  0  0  0
 16 13  2  0  0  0  0
 16 20  1  0  0  0  0
 17 14  1  0  0  0  0
 18 12  1  0  0  0  0
 19 12  2  0  0  0  0
 20 17  2  0  0  0  0
 21 22  2  0  0  0  0
 22 19  1  0  0  0  0
 23 18  2  0  0  0  0
 23 21  1  0  0  0  0
 24 21  1  0  0  0  0
 25 16  1  0  0  0  0
 26 17  1  0  0  0  0
M  END
>  <ID>
7784175

>  <Supplier>
ChemBridge

>  <clogP>
5.770000000000001e+000

>  <RB>
3

>  <tPSA>
5.402000000000000e+001

>  <Hacc>
2

>  <Hdon>
2

>  <LogSw>
-7.058000000000000e+000

>  <Group>
1

>  <Core>
227

$$$$
7784174
 OpenBabel03312015312D

 29 32  0  0  0  0  0  0  0  0999 V2000
    7.7500   -0.8417    0.0000 C   0  0  0  0  0  0  0  0  0  0  0  0
    7.4292   -1.4792    0.0000 C   0  0  0  0  0  0  0  0  0  0  0  0
    8.4500   -0.9542    0.0000 O   0  0  0  0  0  0  0  0  0  0  0  0
    6.7292   -1.5917    0.0000 N   0  0  0  0  0  0  0  0  0  0  0  0
    7.9292   -1.9750    0.0000 C   0  0  0  0  0  0  0  0  0  0  0  0
    7.7000   -0.1417    0.0000 C   0  0  0  0  0  0  0  0  0  0  0  0
    6.3917   -2.2125    0.0000 C   0  0  0  0  0  0  0  0  0  0  0  0
    8.5625   -1.6542    0.0000 C   0  0  0  0  0  0  0  0  0  0  0  0
    8.2917    0.2500    0.0000 C   0  0  0  0  0  0  0  0  0  0  0  0
    5.6792   -2.2375    0.0000 C   0  0  0  0  0  0  0  0  0  0  0  0
    8.2417    0.9583    0.0000 C   0  0  0  0  0  0  0  0  0  0  0  0
    8.8292    1.3500    0.0000 C   0  0  0  0  0  0  0  0  0  0  0  0
    5.2417   -1.6750    0.0000 O   0  0  0  0  0  0  0  0  0  0  0  0
    7.0667    0.1750    0.0000 O   0  0  0  0  0  0  0  0  0  0  0  0
    6.7542   -2.8167    0.0000 O   0  0  0  0  0  0  0  0  0  0  0  0
    9.4667    1.0375    0.0000 C   0  0  0  0  0  0  0  0  0  0  0  0
    5.2875   -2.8292    0.0000 C   0  0  0  0  0  0  0  0  0  0  0  0
    8.9250   -0.0625    0.0000 C   0  0  0  0  0  0  0  0  0  0  0  0
    4.5750   -1.9167    0.0000 C   0  0  0  0  0  0  0  0  0  0  0  0
    4.6000   -2.6292    0.0000 C   0  0  0  0  0  0  0  0  0  0  0  0
    9.5167    0.3333    0.0000 C   0  0  0  0  0  0  0  0  0  0  0  0
    8.7792    2.0583    0.0000 Cl  0  0  0  0  0  0  0  0  0  0  0  0
    7.8875   -2.6792    0.0000 C   0  0  0  0  0  0  0  0  0  0  0  0
   10.0542    1.4333    0.0000 O   0  0  0  0  0  0  0  0  0  0  0  0
    9.1500   -2.0417    0.0000 C   0  0  0  0  0  0  0  0  0  0  0  0
   10.6917    1.1208    0.0000 C   0  0  0  0  0  0  0  0  0  0  0  0
    8.4792   -3.0667    0.0000 C   0  0  0  0  0  0  0  0  0  0  0  0
    9.1167   -2.7417    0.0000 C   0  0  0  0  0  0  0  0  0  0  0  0
    6.4375   -0.9500    0.0000 H   0  0  0  0  0  0  0  0  0  0  0  0
  2  1  2  0  0  0  0
  3  1  1  0  0  0  0
  4  2  1  0  0  0  0
  5  2  1  0  0  0  0
  6  1  1  0  0  0  0
  7  4  1  0  0  0  0
  8  3  1  0  0  0  0
  8  5  2  0  0  0  0
  9  6  1  0  0  0  0
 10  7  1  0  0  0  0
 11  9  1  0  0  0  0
 12 11  2  0  0  0  0
 12 16  1  0  0  0  0
 13 10  1  0  0  0  0
 14  6  2  0  0  0  0
 15  7  2  0  0  0  0
 16 21  2  0  0  0  0
 17 10  2  0  0  0  0
 18  9  2  0  0  0  0
 19 13  1  0  0  0  0
 20 17  1  0  0  0  0
 20 19  2  0  0  0  0
 21 18  1  0  0  0  0
 22 12  1  0  0  0  0
 23  5  1  0  0  0  0
 24 16  1  0  0  0  0
 25  8  1  0  0  0  0
 26 24  1  0  0  0  0
 27 23  2  0  0  0  0
 27 28  1  0  0  0  0
 28 25  2  0  0  0  0
 29  4  1  0  0  0  0
M  END
>  <ID>
7784174

>  <Supplier>
ChemBridge

>  <clogP>
4.890000000000000e+000

>  <RB>
4

>  <tPSA>
8.168000000000001e+001

>  <Hacc>
5

>  <Hdon>
1

>  <LogSw>
-6.261000000000000e+000

>  <Group>
1

$$$$
7784177
 OpenBabel03312015312D

 31 34  0  0  0  0  0  0  0  0999 V2000
    1.7792   -0.9500    0.0000 C   0  0  3  0  0  0  0  0  0  0  0  0
    2.2667   -1.6167    0.0000 S   0  0  0  0  0  0  0  0  0  0  0  0
    3.0625   -1.3417    0.0000 C   0  0  0  0  0  0  0  0  0  0  0  0
    2.2667   -0.2667    0.0000 N   0  0  0  0  0  0  0  0  0  0  0  0
    1.2917   -1.6125    0.0000 N   0  0  0  0  0  0  0  0  0  0  0  0
    3.0625   -0.5292    0.0000 N   0  0  0  0  0  0  0  0  0  0  0  0
    1.3042   -0.2667    0.0000 S   0  0  0  0  0  0  0  0  0  0  0  0
    0.5125   -0.5292    0.0000 C   0  0  0  0  0  0  0  0  0  0  0  0
    0.5042   -1.3417    0.0000 C   0  0  0  0  0  0  0  0  0  0  0  0
    3.7250   -1.8167    0.0000 C   0  0  0  0  0  0  0  0  0  0  0  0
    2.0042    0.5208    0.0000 C   0  0  0  0  0  0  0  0  0  0  0  0
   -0.1500   -0.0292    0.0000 C   0  0  0  0  0  0  0  0  0  0  0  0
    1.5417   -2.4042    0.0000 C   0  0  0  0  0  0  0  0  0  0  0  0
    3.6417   -2.6500    0.0000 O   0  0  0  0  0  0  0  0  0  0  0  0
   -0.0583    0.7875    0.0000 O   0  0  0  0  0  0  0  0  0  0  0  0
    2.5625    1.1333    0.0000 C   0  0  0  0  0  0  0  0  0  0  0  0
    1.2000    0.6708    0.0000 C   0  0  0  0  0  0  0  0  0  0  0  0
   -0.1750   -1.8167    0.0000 C   0  0  0  0  0  0  0  0  0  0  0  0
    4.4667   -1.4792    0.0000 O   0  0  0  0  0  0  0  0  0  0  0  0
    1.5000    2.0833    0.0000 C   0  0  0  0  0  0  0  0  0  0  0  0
    0.9417    1.4500    0.0000 C   0  0  0  0  0  0  0  0  0  0  0  0
    2.3042    1.9083    0.0000 C   0  0  0  0  0  0  0  0  0  0  0  0
    1.2792    2.8833    0.0000 Cl  0  0  0  0  0  0  0  0  0  0  0  0
   -0.9000   -0.3667    0.0000 C   0  0  0  0  0  0  0  0  0  0  0  0
    0.9792   -3.0042    0.0000 C   0  0  0  0  0  0  0  0  0  0  0  0
    2.3417   -2.5792    0.0000 C   0  0  0  0  0  0  0  0  0  0  0  0
    5.1417   -1.9542    0.0000 C   0  0  0  0  0  0  0  0  0  0  0  0
    5.8917   -1.6167    0.0000 C   0  0  0  0  0  0  0  0  0  0  0  0
    2.6000   -3.3667    0.0000 C   0  0  0  0  0  0  0  0  0  0  0  0
    1.2167   -3.8000    0.0000 C   0  0  0  0  0  0  0  0  0  0  0  0
    2.0375   -3.9792    0.0000 C   0  0  0  0  0  0  0  0  0  0  0  0
  2  1  1  0  0  0  0
  3  2  1  0  0  0  0
  3  6  2  0  0  0  0
  4  1  1  0  0  0  0
  5  1  1  0  0  0  0
  6  4  1  0  0  0  0
  7  1  1  0  0  0  0
  8  7  1  0  0  0  0
  8  9  2  0  0  0  0
  9  5  1  0  0  0  0
 10  3  1  0  0  0  0
 11  4  1  0  0  0  0
 12  8  1  0  0  0  0
 13  5  1  0  0  0  0
 14 10  2  0  0  0  0
 15 12  2  0  0  0  0
 16 11  2  0  0  0  0
 17 11  1  0  0  0  0
 18  9  1  0  0  0  0
 19 10  1  0  0  0  0
 20 21  1  0  0  0  0
 21 17  2  0  0  0  0
 22 16  1  0  0  0  0
 22 20  2  0  0  0  0
 23 20  1  0  0  0  0
 24 12  1  0  0  0  0
 25 13  2  0  0  0  0
 26 13  1  0  0  0  0
 27 19  1  0  0  0  0
 28 27  1  0  0  0  0
 29 26  2  0  0  0  0
 30 25  1  0  0  0  0
 30 31  2  0  0  0  0
 31 29  1  0  0  0  0
M  END
>  <ID>
7784177

>  <Supplier>
ChemBridge

>  <clogP>
5.900000000000000e+000

>  <RB>
4

>  <tPSA>
6.221000000000000e+001

>  <Hacc>
4

>  <Hdon>
0

>  <LogSw>
-7.693000000000000e+000

>  <Group>
1

$$$$
7784171
 OpenBabel03312015312D

 27 28  0  0  0  0  0  0  0  0999 V2000
   14.7500   -0.7542    0.0000 N   0  3  0  0  0  0  0  0  0  0  0  0
    4.1250   -3.0917    0.0000 C   0  0  0  0  0  0  0  0  0  0  0  0
   -1.8000   -1.0417    0.0000 C   0  0  0  0  0  0  0  0  0  0  0  0
    0.5542   -1.0417    0.0000 N   0  0  0  0  0  0  0  0  0  0  0  0
   12.3792   -0.8500    0.0000 C   0  0  0  0  0  0  0  0  0  0  0  0
   -3.0000    1.0125    0.0000 C   0  0  0  0  0  0  0  0  0  0  0  0
    1.7542   -3.0917    0.0000 N   0  0  0  0  0  0  0  0  0  0  0  0
   16.0000   -2.7875    0.0000 O   0  5  0  0  0  0  0  0  0  0  0  0
    5.2625   -1.0375    0.0000 N   0  0  0  0  0  0  0  0  0  0  0  0
   15.8625    1.3083    0.0000 O   0  0  0  0  0  0  0  0  0  0  0  0
    5.3292   -5.1167    0.0000 S   0  0  0  0  0  0  0  0  0  0  0  0
   -3.0000   -3.0917    0.0000 O   0  0  0  0  0  0  0  0  0  0  0  0
   -5.4083    1.0125    0.0000 C   0  0  0  0  0  0  0  0  0  0  0  0
   11.2167   -2.9625    0.0000 C   0  0  0  0  0  0  0  0  0  0  0  0
   11.1250    1.1500    0.0000 C   0  0  0  0  0  0  0  0  0  0  0  0
    7.6292   -0.9875    0.0000 C   0  0  0  0  0  0  0  0  0  0  0  0
   -6.6042    3.0708    0.0000 C   0  0  0  0  0  0  0  0  0  0  0  0
    8.8917   -3.0292    0.0000 C   0  0  0  0  0  0  0  0  0  0  0  0
    8.7667    1.0708    0.0000 C   0  0  0  0  0  0  0  0  0  0  0  0
   -8.9542    3.0708    0.0000 O   0  0  0  0  0  0  0  0  0  0  0  0
   -1.8500    3.0708    0.0000 C   0  0  0  0  0  0  0  0  0  0  0  0
   -3.0000    5.1167    0.0000 C   0  0  0  0  0  0  0  0  0  0  0  0
   -5.4083    5.1167    0.0000 C   0  0  0  0  0  0  0  0  0  0  0  0
  -10.1292    1.0375    0.0000 C   0  0  0  0  0  0  0  0  0  0  0  0
  -12.4917    1.0375    0.0000 C   0  0  0  0  0  0  0  0  0  0  0  0
  -13.6667   -0.9917    0.0000 C   0  0  0  0  0  0  0  0  0  0  0  0
  -16.0000   -0.9917    0.0000 C   0  0  0  0  0  0  0  0  0  0  0  0
  2  9  1  0  0  0  0
  3  4  1  0  0  0  0
  4  7  1  0  0  0  0
  5  1  1  0  0  0  0
  6  3  1  0  0  0  0
  7  2  1  0  0  0  0
  8  1  1  0  0  0  0
  9 16  1  0  0  0  0
 10  1  2  0  0  0  0
 11  2  2  0  0  0  0
 12  3  2  0  0  0  0
 13  6  1  0  0  0  0
 14  5  1  0  0  0  0
 15  5  2  0  0  0  0
 16 19  2  0  0  0  0
 16 18  1  0  0  0  0
 17 13  2  0  0  0  0
 17 23  1  0  0  0  0
 18 14  2  0  0  0  0
 19 15  1  0  0  0  0
 20 17  1  0  0  0  0
 21  6  2  0  0  0  0
 22 21  1  0  0  0  0
 23 22  2  0  0  0  0
 24 20  1  0  0  0  0
 25 24  1  0  0  0  0
 26 25  1  0  0  0  0
 27 26  1  0  0  0  0
M  CHG  2   1   1   8  -1
M  END
>  <ID>
7784171

>  <Supplier>
ChemBridge

>  <clogP>
2.900000000000000e+000

>  <RB>
5

>  <tPSA>
1.055300000000000e+002

>  <Hacc>
4

>  <Hdon>
3

>  <LogSw>
-4.898000000000000e+000

>  <Group>
1

>  <Core>
444

$$$$
7784170
 OpenBabel03312015312D

 20 21  0  0  0  0  0  0  0  0999 V2000
    8.6042   -3.4292    0.0000 C   0  0  0  0  0  0  0  0  0  0  0  0
    6.1417   -4.8542    0.0000 O   0  0  0  0  0  0  0  0  0  0  0  0
    3.6792   -3.4292    0.0000 C   0  0  0  0  0  0  0  0  0  0  0  0
    8.6042   -0.5875    0.0000 C   0  0  0  0  0  0  0  0  0  0  0  0
   11.0667   -4.8542    0.0000 C   0  0  0  0  0  0  0  0  0  0  0  0
    1.2167   -4.8625    0.0000 C   0  0  0  0  0  0  0  0  0  0  0  0
   11.0667    0.8333    0.0000 C   0  0  0  0  0  0  0  0  0  0  0  0
   13.5292   -3.4292    0.0000 C   0  0  0  0  0  0  0  0  0  0  0  0
    3.6792   -0.5917    0.0000 O   0  0  0  0  0  0  0  0  0  0  0  0
   13.5292   -0.5875    0.0000 C   0  0  0  0  0  0  0  0  0  0  0  0
   -1.2583   -3.4292    0.0000 C   0  0  0  0  0  0  0  0  0  0  0  0
    1.2167   -7.7167    0.0000 C   0  0  0  0  0  0  0  0  0  0  0  0
   16.0000    0.8333    0.0000 Br  0  0  0  0  0  0  0  0  0  0  0  0
   -3.7375   -7.7167    0.0000 C   0  0  0  0  0  0  0  0  0  0  0  0
   -1.2583   -9.1417    0.0000 C   0  0  0  0  0  0  0  0  0  0  0  0
   -3.7375   -4.8625    0.0000 C   0  0  0  0  0  0  0  0  0  0  0  0
   -6.2042   -9.1417    0.0000 O   0  0  0  0  0  0  0  0  0  0  0  0
   11.0667   -7.7000    0.0000 C   0  0  0  0  0  0  0  0  0  0  0  0
    6.1417    0.8333    0.0000 C   0  0  0  0  0  0  0  0  0  0  0  0
   -8.6792   -7.7167    0.0000 C   0  0  0  0  0  0  0  0  0  0  0  0
  2  1  1  0  0  0  0
  3  2  1  0  0  0  0
  4  1  1  0  0  0  0
  5  1  2  0  0  0  0
  6  3  1  0  0  0  0
  7  4  2  0  0  0  0
  7 10  1  0  0  0  0
  8  5  1  0  0  0  0
  9  3  2  0  0  0  0
 10  8  2  0  0  0  0
 11  6  1  0  0  0  0
 12  6  2  0  0  0  0
 13 10  1  0  0  0  0
 14 15  2  0  0  0  0
 15 12  1  0  0  0  0
 16 11  2  0  0  0  0
 16 14  1  0  0  0  0
 17 14  1  0  0  0  0
 18  5  1  0  0  0  0
 19  4  1  0  0  0  0
 20 17  1  0  0  0  0
M  END
>  <ID>
7784170

>  <Supplier>
ChemBridge

>  <clogP>
5.790000000000000e+000

>  <RB>
3

>  <tPSA>
3.553000000000000e+001

>  <Hacc>
3

>  <Hdon>
0

>  <LogSw>
-6.589000000000000e+000

>  <Group>
1

>  <Core>
266

$$$$
7784172
 OpenBabel03312015312D

 29 30  0  0  0  0  0  0  0  0999 V2000
    5.9417   -7.2875    0.0000 S   0  0  0  0  0  0  0  0  0  0  0  0
    5.9667   -6.4625    0.0000 N   0  0  0  0  0  0  0  0  0  0  0  0
    5.2625   -6.0375    0.0000 C   0  0  0  0  0  0  0  0  0  0  0  0
    6.6792   -6.0500    0.0000 C   0  0  0  0  0  0  0  0  0  0  0  0
    7.4000   -6.4625    0.0000 C   0  0  0  0  0  0  0  0  0  0  0  0
    8.8250   -6.4542    0.0000 C   0  0  0  0  0  0  0  0  0  0  0  0
    8.1125   -6.0500    0.0000 N   0  0  0  0  0  0  0  0  0  0  0  0
    9.5375   -8.5167    0.0000 C   0  0  0  0  0  0  0  0  0  0  0  0
    9.5292   -7.6917    0.0000 C   0  0  0  0  0  0  0  0  0  0  0  0
    4.5417   -6.4417    0.0000 C   0  0  0  0  0  0  0  0  0  0  0  0
    8.8167   -7.2792    0.0000 C   0  0  0  0  0  0  0  0  0  0  0  0
    6.7667   -7.3167    0.0000 O   0  0  0  0  0  0  0  0  0  0  0  0
    6.3167   -8.0042    0.0000 O   0  0  0  0  0  0  0  0  0  0  0  0
    5.2750   -5.2125    0.0000 C   0  0  0  0  0  0  0  0  0  0  0  0
    9.5292   -6.0417    0.0000 C   0  0  0  0  0  0  0  0  0  0  0  0
    7.4000   -7.2875    0.0000 O   0  0  0  0  0  0  0  0  0  0  0  0
   10.2500   -8.9292    0.0000 O   0  0  0  0  0  0  0  0  0  0  0  0
   10.2500   -7.2792    0.0000 C   0  0  0  0  0  0  0  0  0  0  0  0
   10.2417   -6.4542    0.0000 C   0  0  0  0  0  0  0  0  0  0  0  0
    4.5667   -4.7917    0.0000 C   0  0  0  0  0  0  0  0  0  0  0  0
    3.8375   -6.0167    0.0000 C   0  0  0  0  0  0  0  0  0  0  0  0
    5.2167   -7.6792    0.0000 C   0  0  0  0  0  0  0  0  0  0  0  0
    8.8250   -8.9292    0.0000 O   0  0  0  0  0  0  0  0  0  0  0  0
    9.5250   -5.2250    0.0000 Cl  0  0  0  0  0  0  0  0  0  0  0  0
    3.8417   -5.1917    0.0000 C   0  0  0  0  0  0  0  0  0  0  0  0
    3.1167   -6.4292    0.0000 Cl  0  0  0  0  0  0  0  0  0  0  0  0
    5.9917   -4.8125    0.0000 O   0  0  0  0  0  0  0  0  0  0  0  0
    8.1042   -8.5167    0.0000 C   0  0  0  0  0  0  0  0  0  0  0  0
    6.0042   -3.9875    0.0000 C   0  0  0  0  0  0  0  0  0  0  0  0
  2  1  1  0  0  0  0
  3  2  1  0  0  0  0
  4  2  1  0  0  0  0
  5  4  1  0  0  0  0
  6  7  1  0  0  0  0
  7  5  1  0  0  0  0
  8  9  1  0  0  0  0
  9 11  1  0  0  0  0
 10  3  1  0  0  0  0
 11  6  2  0  0  0  0
 12  1  2  0  0  0  0
 13  1  2  0  0  0  0
 14  3  2  0  0  0  0
 15  6  1  0  0  0  0
 16  5  2  0  0  0  0
 17  8  2  0  0  0  0
 18 19  1  0  0  0  0
 18  9  2  0  0  0  0
 19 15  2  0  0  0  0
 20 14  1  0  0  0  0
 21 10  2  0  0  0  0
 21 25  1  0  0  0  0
 22  1  1  0  0  0  0
 23  8  1  0  0  0  0
 24 15  1  0  0  0  0
 25 20  2  0  0  0  0
 26 21  1  0  0  0  0
 27 14  1  0  0  0  0
 28 23  1  0  0  0  0
 29 27  1  0  0  0  0
M  END
>  <ID>
7784172

>  <Supplier>
ChemBridge

>  <clogP>
3.410000000000000e+000

>  <RB>
5

>  <tPSA>
1.020100000000000e+002

>  <Hacc>
6

>  <Hdon>
1

>  <LogSw>
-5.475000000000001e+000

>  <Group>
1

>  <Core>
084

$$$$
7784178
 OpenBabel03312015312D

 21 22  0  0  0  0  0  0  0  0999 V2000
   -7.9917   -5.3667    0.0000 N   0  0  0  0  0  0  0  0  0  0  0  0
   -4.0083   -5.3667    0.0000 C   0  0  0  0  0  0  0  0  0  0  0  0
   -9.9667   -1.9375    0.0000 C   0  0  0  0  0  0  0  0  0  0  0  0
   -2.0458   -1.8792    0.0000 N   0  0  0  0  0  0  0  0  0  0  0  0
    3.9667    1.6500    0.0000 C   0  0  0  0  0  0  0  0  0  0  0  0
    7.9542    1.7208    0.0000 C   0  0  0  0  0  0  0  0  0  0  0  0
   -8.0042    1.5375    0.0000 N   0  0  0  0  0  0  0  0  0  0  0  0
   -2.0125   -8.6917    0.0000 S   0  0  0  0  0  0  0  0  0  0  0  0
    2.0167   -1.8375    0.0000 C   0  0  0  0  0  0  0  0  0  0  0  0
    9.9667   -1.7167    0.0000 C   0  0  0  0  0  0  0  0  0  0  0  0
  -13.9792   -1.9250    0.0000 C   0  0  0  0  0  0  0  0  0  0  0  0
    8.0667   -5.1542    0.0000 C   0  0  0  0  0  0  0  0  0  0  0  0
    4.0625   -5.2250    0.0000 C   0  0  0  0  0  0  0  0  0  0  0  0
    9.9250    5.2417    0.0000 O   0  0  0  0  0  0  0  0  0  0  0  0
   14.0292   -1.7167    0.0000 O   0  0  0  0  0  0  0  0  0  0  0  0
  -10.0000    4.9667    0.0000 C   0  0  0  0  0  0  0  0  0  0  0  0
  -15.9667   -5.3542    0.0000 C   0  0  0  0  0  0  0  0  0  0  0  0
  -16.0000    1.5250    0.0000 C   0  0  0  0  0  0  0  0  0  0  0  0
    7.8917    8.6917    0.0000 C   0  0  0  0  0  0  0  0  0  0  0  0
   16.0000   -5.2042    0.0000 C   0  0  0  0  0  0  0  0  0  0  0  0
  -14.0250    5.0125    0.0000 C   0  0  0  0  0  0  0  0  0  0  0  0
  2  1  1  0  0  0  0
  3  1  1  0  0  0  0
  4  2  1  0  0  0  0
  5  9  2  0  0  0  0
  6  5  1  0  0  0  0
  6 10  2  0  0  0  0
  7  3  1  0  0  0  0
  8  2  2  0  0  0  0
  9  4  1  0  0  0  0
 10 12  1  0  0  0  0
 11  3  2  0  0  0  0
 12 13  2  0  0  0  0
 13  9  1  0  0  0  0
 14  6  1  0  0  0  0
 15 10  1  0  0  0  0
 16  7  2  0  0  0  0
 16 21  1  0  0  0  0
 17 11  1  0  0  0  0
 18 11  1  0  0  0  0
 19 14  1  0  0  0  0
 20 15  1  0  0  0  0
 21 18  2  0  0  0  0
M  END
>  <ID>
7784178

>  <Supplier>
ChemBridge

>  <clogP>
1.210000000000000e+000

>  <RB>
2

>  <tPSA>
5.541000000000000e+001

>  <Hacc>
3

>  <Hdon>
2

>  <LogSw>
-2.446000000000000e+000

>  <Group>
2

$$$$
9048285
 OpenBabel03312015312D

 21 23  0  0  0  0  0  0  0  0999 V2000
    0.3417    3.8958    0.0000 S   0  0  0  0  0  0  0  0  0  0  0  0
   -0.3833    3.6958    0.0000 C   0  0  0  0  0  0  0  0  0  0  0  0
   -0.9708    4.1542    0.0000 C   0  0  0  0  0  0  0  0  0  0  0  0
   -1.4000    3.0333    0.0000 N   0  0  0  0  0  0  0  0  0  0  0  0
   -0.6500    2.9958    0.0000 C   0  0  0  0  0  0  0  0  0  0  0  0
   -1.5958    3.7583    0.0000 N   0  0  0  0  0  0  0  0  0  0  0  0
    0.7167    3.2375    0.0000 N   0  0  0  0  0  0  0  0  0  0  0  0
    2.5917    2.5875    0.0000 C   0  0  0  0  0  0  0  0  0  0  0  0
    1.0167    4.2000    0.0000 O   0  0  0  0  0  0  0  0  0  0  0  0
    0.0875    4.5875    0.0000 O   0  0  0  0  0  0  0  0  0  0  0  0
    1.8417    2.5875    0.0000 C   0  0  0  0  0  0  0  0  0  0  0  0
    1.4667    3.2375    0.0000 C   0  0  0  0  0  0  0  0  0  0  0  0
    2.9667    3.2375    0.0000 C   0  0  0  0  0  0  0  0  0  0  0  0
    2.9667    1.9375    0.0000 O   0  0  0  0  0  0  0  0  0  0  0  0
    3.7167    3.2375    0.0000 O   0  0  0  0  0  0  0  0  0  0  0  0
    2.5917    3.8958    0.0000 C   0  0  0  0  0  0  0  0  0  0  0  0
    1.8417    3.8958    0.0000 C   0  0  0  0  0  0  0  0  0  0  0  0
   -2.2958    4.0167    0.0000 C   0  0  0  0  0  0  0  0  0  0  0  0
    3.7167    1.9375    0.0000 C   0  0  0  0  0  0  0  0  0  0  0  0
    4.0917    2.5875    0.0000 C   0  0  0  0  0  0  0  0  0  0  0  0
   -2.8750    3.5583    0.0000 C   0  0  0  0  0  0  0  0  0  0  0  0
  2  1  1  0  0  0  0
  3  2  2  0  0  0  0
  4  5  2  0  0  0  0
  4  6  1  0  0  0  0
  5  2  1  0  0  0  0
  6  3  1  0  0  0  0
  7  1  1  0  0  0  0
  8 11  2  0  0  0  0
  9  1  2  0  0  0  0
 10  1  2  0  0  0  0
 11 12  1  0  0  0  0
 12  7  1  0  0  0  0
 13 16  2  0  0  0  0
 13  8  1  0  0  0  0
 14  8  1  0  0  0  0
 15 13  1  0  0  0  0
 16 17  1  0  0  0  0
 17 12  2  0  0  0  0
 18  6  1  0  0  0  0
 19 14  1  0  0  0  0
 20 15  1  0  0  0  0
 20 19  1  0  0  0  0
 21 18  1  0  0  0  0
M  END
>  <ID>
9048285

>  <Supplier>
ChemBridge

>  <clogP>
1.797000000000000e+000

>  <RB>
2

>  <tPSA>
8.244999999999999e+001

>  <Hacc>
5

>  <Hdon>
1

>  <LogSw>
-2.981000000000000e+000

>  <Group>
2

>  <Core>
297

$$$$
5160534
 OpenBabel03312015312D

 22 24  0  0  0  0  0  0  0  0999 V2000
   -1.1458   -0.2000    0.0000 N   0  0  0  0  0  0  0  0  0  0  0  0
   -1.7125    0.4333    0.0000 C   0  0  0  0  0  0  0  0  0  0  0  0
   -1.5625   -0.9375    0.0000 C   0  0  0  0  0  0  0  0  0  0  0  0
   -2.5000    0.1000    0.0000 C   0  0  0  0  0  0  0  0  0  0  0  0
   -2.4125   -0.7542    0.0000 C   0  0  0  0  0  0  0  0  0  0  0  0
   -0.2708   -0.2042    0.0000 C   0  0  0  0  0  0  0  0  0  0  0  0
   -1.5208    1.2708    0.0000 O   0  0  0  0  0  0  0  0  0  0  0  0
   -1.1958   -1.7292    0.0000 O   0  0  0  0  0  0  0  0  0  0  0  0
   -3.2833    0.4458    0.0000 C   0  0  0  0  0  0  0  0  0  0  0  0
    2.7500    0.5458    0.0000 C   0  0  0  0  0  0  0  0  0  0  0  0
    2.3292   -0.2042    0.0000 O   0  0  0  0  0  0  0  0  0  0  0  0
    3.6042    0.6125    0.0000 O   0  0  0  0  0  0  0  0  0  0  0  0
    0.1500   -0.9500    0.0000 C   0  0  0  0  0  0  0  0  0  0  0  0
    0.1542    0.5208    0.0000 C   0  0  0  0  0  0  0  0  0  0  0  0
    1.4542   -0.2167    0.0000 C   0  0  0  0  0  0  0  0  0  0  0  0
   -3.1125   -1.2667    0.0000 C   0  0  0  0  0  0  0  0  0  0  0  0
   -3.3625    1.2958    0.0000 N   0  0  0  0  0  0  0  0  0  0  0  0
    1.0292    0.5208    0.0000 C   0  0  0  0  0  0  0  0  0  0  0  0
    1.0167   -0.9542    0.0000 C   0  0  0  0  0  0  0  0  0  0  0  0
   -3.9000   -0.9167    0.0000 C   0  0  0  0  0  0  0  0  0  0  0  0
   -3.9833   -0.0500    0.0000 C   0  0  0  0  0  0  0  0  0  0  0  0
    2.3667    1.3125    0.0000 C   0  0  0  0  0  0  0  0  0  0  0  0
  2  1  1  0  0  0  0
  3  1  1  0  0  0  0
  4  2  1  0  0  0  0
  4  5  1  0  0  0  0
  5  3  1  0  0  0  0
  6  1  1  0  0  0  0
  7  2  2  0  0  0  0
  8  3  2  0  0  0  0
  9  4  2  0  0  0  0
 10 11  1  0  0  0  0
 11 15  1  0  0  0  0
 12 10  2  0  0  0  0
 13  6  2  0  0  0  0
 14  6  1  0  0  0  0
 15 18  1  0  0  0  0
 15 19  2  0  0  0  0
 16  5  2  0  0  0  0
 17  9  1  0  0  0  0
 18 14  2  0  0  0  0
 19 13  1  0  0  0  0
 20 16  1  0  0  0  0
 21  9  1  0  0  0  0
 21 20  2  0  0  0  0
 22 10  1  0  0  0  0
M  END
>  <ID>
5160534

>  <Supplier>
ChemBridge

>  <clogP>
1.190000000000000e+000

>  <RB>
3

>  <tPSA>
8.970000000000000e+001

>  <Hacc>
4

>  <Hdon>
1

>  <LogSw>
-2.377000000000000e+000

>  <Group>
3

$$$$
9149286
 OpenBabel03312015312D

 18 18  0  0  0  0  0  0  0  0999 V2000
    3.8667    1.2500    0.0000 S   0  0  0  0  0  0  0  0  0  0  0  0
    4.5167    1.6250    0.0000 C   0  0  0  0  0  0  0  0  0  0  0  0
    3.2917    0.7708    0.0000 O   0  0  0  0  0  0  0  0  0  0  0  0
    4.3000    0.6333    0.0000 O   0  0  0  0  0  0  0  0  0  0  0  0
    3.3417    1.7833    0.0000 N   0  0  0  0  0  0  0  0  0  0  0  0
    5.1667    1.2500    0.0000 C   0  0  0  0  0  0  0  0  0  0  0  0
    4.5167    2.3750    0.0000 C   0  0  0  0  0  0  0  0  0  0  0  0
    2.6167    1.5875    0.0000 C   0  0  0  0  0  0  0  0  0  0  0  0
    1.3625    1.9208    0.0000 N   0  0  0  0  0  0  0  0  0  0  0  0
    5.8167    2.3750    0.0000 C   0  0  0  0  0  0  0  0  0  0  0  0
    5.1667    2.7500    0.0000 C   0  0  0  0  0  0  0  0  0  0  0  0
    5.8167    1.6250    0.0000 C   0  0  0  0  0  0  0  0  0  0  0  0
    6.4667    2.7500    0.0000 O   0  0  0  0  0  0  0  0  0  0  0  0
    2.0875    2.1208    0.0000 C   0  0  0  0  0  0  0  0  0  0  0  0
    0.8292    2.4583    0.0000 C   0  0  0  0  0  0  0  0  0  0  0  0
    1.1667    1.1958    0.0000 C   0  0  0  0  0  0  0  0  0  0  0  0
    7.1167    2.3750    0.0000 C   0  0  0  0  0  0  0  0  0  0  0  0
    7.7667    2.7500    0.0000 C   0  0  0  0  0  0  0  0  0  0  0  0
  2  1  1  0  0  0  0
  3  1  2  0  0  0  0
  4  1  2  0  0  0  0
  5  1  1  0  0  0  0
  6  2  2  0  0  0  0
  7  2  1  0  0  0  0
  8  5  1  0  0  0  0
  9 14  1  0  0  0  0
 10 11  1  0  0  0  0
 11  7  2  0  0  0  0
 12  6  1  0  0  0  0
 12 10  2  0  0  0  0
 13 10  1  0  0  0  0
 14  8  1  0  0  0  0
 15  9  1  0  0  0  0
 16  9  1  0  0  0  0
 17 13  1  0  0  0  0
 18 17  1  0  0  0  0
M  END
>  <ID>
9149286

>  <Supplier>
ChemBridge

>  <clogP>
2.123000000000000e+000

>  <RB>
3

>  <tPSA>
5.863999999999997e+001

>  <Hacc>
5

>  <Hdon>
1

>  <LogSw>
-1.992000000000000e+000

>  <Group>
2

$$$$
9149288
 OpenBabel03312015312D

 24 27  0  0  0  0  0  0  0  0999 V2000
    3.6250    2.7375    0.0000 C   0  0  0  0  0  0  0  0  0  0  0  0
    4.0000    2.0875    0.0000 N   0  0  0  0  0  0  0  0  0  0  0  0
    2.8750    2.7375    0.0000 C   0  0  0  0  0  0  0  0  0  0  0  0
    4.7500    2.0875    0.0000 C   0  0  0  0  0  0  0  0  0  0  0  0
    1.3750    2.7375    0.0000 N   0  0  0  0  0  0  0  0  0  0  0  0
    1.7500    2.0875    0.0000 C   0  0  0  0  0  0  0  0  0  0  0  0
    2.5000    2.0875    0.0000 C   0  0  0  0  0  0  0  0  0  0  0  0
    5.1875    1.4833    0.0000 N   0  0  0  0  0  0  0  0  0  0  0  0
    2.5000    3.3958    0.0000 C   0  0  0  0  0  0  0  0  0  0  0  0
    1.7500    3.3958    0.0000 C   0  0  0  0  0  0  0  0  0  0  0  0
    5.1875    2.6958    0.0000 S   0  0  0  0  0  0  0  0  0  0  0  0
    4.0000    3.3958    0.0000 O   0  0  0  0  0  0  0  0  0  0  0  0
    5.9042    1.7125    0.0000 C   0  0  0  0  0  0  0  0  0  0  0  0
    5.9042    2.4625    0.0000 C   0  0  0  0  0  0  0  0  0  0  0  0
    1.3750    1.4458    0.0000 C   0  0  0  0  0  0  0  0  0  0  0  0
    0.6250    0.1458    0.0000 N   0  0  0  0  0  0  0  0  0  0  0  0
    2.8750    4.0292    0.0000 C   0  0  0  0  0  0  0  0  0  0  0  0
    1.3750    4.0292    0.0000 C   0  0  0  0  0  0  0  0  0  0  0  0
    1.3750    0.1458    0.0000 C   0  0  0  0  0  0  0  0  0  0  0  0
    0.2500    0.7958    0.0000 C   0  0  0  0  0  0  0  0  0  0  0  0
    1.7500    0.7958    0.0000 C   0  0  0  0  0  0  0  0  0  0  0  0
    0.6250    1.4458    0.0000 C   0  0  0  0  0  0  0  0  0  0  0  0
    2.5000    4.6792    0.0000 C   0  0  0  0  0  0  0  0  0  0  0  0
    1.7500    4.6792    0.0000 C   0  0  0  0  0  0  0  0  0  0  0  0
  2  1  1  0  0  0  0
  3  1  1  0  0  0  0
  4  2  1  0  0  0  0
  5 10  1  0  0  0  0
  6  7  1  0  0  0  0
  6  5  2  0  0  0  0
  7  3  2  0  0  0  0
  8  4  2  0  0  0  0
  9  3  1  0  0  0  0
 10  9  1  0  0  0  0
 11  4  1  0  0  0  0
 12  1  2  0  0  0  0
 13  8  1  0  0  0  0
 14 11  1  0  0  0  0
 14 13  2  0  0  0  0
 15  6  1  0  0  0  0
 16 20  1  0  0  0  0
 16 19  2  0  0  0  0
 17  9  2  0  0  0  0
 18 10  2  0  0  0  0
 18 24  1  0  0  0  0
 19 21  1  0  0  0  0
 20 22  2  0  0  0  0
 21 15  2  0  0  0  0
 22 15  1  0  0  0  0
 23 17  1  0  0  0  0
 24 23  2  0  0  0  0
M  END
>  <ID>
9149288

>  <Supplier>
ChemBridge

>  <clogP>
2.736000000000000e+000

>  <RB>
3

>  <tPSA>
6.777000000000000e+001

>  <Hacc>
4

>  <Hdon>
1

>  <LogSw>
-3.960000000000000e+000

>  <Group>
2

$$$$
6954169
 OpenBabel03312015312D

 32 36  0  0  0  0  0  0  0  0999 V2000
    0.8500   -0.7167    0.0000 N   0  0  0  0  0  0  0  0  0  0  0  0
   -0.5708   -0.7167    0.0000 C   0  0  0  0  0  0  0  0  0  0  0  0
    0.1500   -1.1375    0.0000 C   0  0  0  0  0  0  0  0  0  0  0  0
   -0.5708    0.0958    0.0000 C   0  0  0  0  0  0  0  0  0  0  0  0
    0.8500    0.0625    0.0000 C   0  0  0  0  0  0  0  0  0  0  0  0
    0.1500    0.4833    0.0000 N   0  0  0  0  0  0  0  0  0  0  0  0
   -1.2708   -1.1375    0.0000 C   0  0  0  0  0  0  0  0  0  0  0  0
    1.5500   -1.1042    0.0000 C   0  0  0  0  0  0  0  0  0  0  0  0
   -1.2708    0.4833    0.0000 C   0  0  0  0  0  0  0  0  0  0  0  0
   -1.9708    0.0958    0.0000 C   0  0  0  0  0  0  0  0  0  0  0  0
   -1.9708   -0.7167    0.0000 C   0  0  0  0  0  0  0  0  0  0  0  0
    3.6875    0.8000    0.0000 N   0  0  0  0  0  0  0  0  0  0  0  0
    1.5500   -1.9167    0.0000 C   0  0  0  0  0  0  0  0  0  0  0  0
    0.1500   -1.9500    0.0000 O   0  0  0  0  0  0  0  0  0  0  0  0
    2.9667    0.4125    0.0000 C   0  0  0  0  0  0  0  0  0  0  0  0
    1.5667    0.4500    0.0000 S   0  0  0  0  0  0  0  0  0  0  0  0
    2.2500   -2.3042    0.0000 C   0  0  0  0  0  0  0  0  0  0  0  0
   -2.0708   -1.2292    0.0000 C   0  0  0  0  0  0  0  0  0  0  0  0
   -0.7958   -1.8000    0.0000 C   0  0  0  0  0  0  0  0  0  0  0  0
    2.2500   -0.7167    0.0000 C   0  0  0  0  0  0  0  0  0  0  0  0
    2.2500    0.0208    0.0000 C   0  0  0  0  0  0  0  0  0  0  0  0
   -1.2708    1.2958    0.0000 C   0  0  0  0  0  0  0  0  0  0  0  0
    2.2500   -3.1167    0.0000 O   0  0  0  0  0  0  0  0  0  0  0  0
   -2.6708    0.4833    0.0000 C   0  0  0  0  0  0  0  0  0  0  0  0
    2.9500   -1.1042    0.0000 C   0  0  0  0  0  0  0  0  0  0  0  0
    2.9500   -1.9167    0.0000 C   0  0  0  0  0  0  0  0  0  0  0  0
    2.9500   -3.5375    0.0000 C   0  0  0  0  0  0  0  0  0  0  0  0
   -2.3958   -1.9500    0.0000 C   0  0  0  0  0  0  0  0  0  0  0  0
   -1.1333   -2.5167    0.0000 C   0  0  0  0  0  0  0  0  0  0  0  0
   -1.9708    1.6833    0.0000 C   0  0  0  0  0  0  0  0  0  0  0  0
   -2.6708    1.2958    0.0000 C   0  0  0  0  0  0  0  0  0  0  0  0
   -1.9125   -2.6042    0.0000 C   0  0  0  0  0  0  0  0  0  0  0  0
  2  3  1  0  0  0  0
  2  4  2  0  0  0  0
  3  1  1  0  0  0  0
  4  6  1  0  0  0  0
  5  1  1  0  0  0  0
  6  5  2  0  0  0  0
  7  2  1  0  0  0  0
  8  1  1  0  0  0  0
  9  4  1  0  0  0  0
 10  9  2  0  0  0  0
 11  7  1  0  0  0  0
 11 10  1  0  0  0  0
 12 15  3  0  0  0  0
 13  8  1  0  0  0  0
 14  3  2  0  0  0  0
 15 21  1  0  0  0  0
 16  5  1  0  0  0  0
 17 13  2  0  0  0  0
 18  7  1  0  0  0  0
 19  7  1  0  0  0  0
 20  8  2  0  0  0  0
 21 16  1  0  0  0  0
 22  9  1  0  0  0  0
 23 17  1  0  0  0  0
 24 10  1  0  0  0  0
 25 20  1  0  0  0  0
 26 25  2  0  0  0  0
 26 17  1  0  0  0  0
 27 23  1  0  0  0  0
 28 18  1  0  0  0  0
 28 32  1  0  0  0  0
 29 19  1  0  0  0  0
 30 22  2  0  0  0  0
 31 30  1  0  0  0  0
 31 24  2  0  0  0  0
 32 29  1  0  0  0  0
M  END
>  <ID>
6954169

>  <Supplier>
ChemBridge

>  <clogP>
5.109999999999999e+000

>  <RB>
3

>  <tPSA>
6.791000000000000e+001

>  <Hacc>
4

>  <Hdon>
0

>  <LogSw>
-7.061999999999999e+000

>  <Group>
1

>  <Core>
039

$$$$
9048287
 OpenBabel03312015312D

 26 28  0  0  0  0  0  0  0  0999 V2000
    5.4417    1.7708    0.0000 S   0  0  0  0  0  0  0  0  0  0  0  0
    5.8167    2.4208    0.0000 C   0  0  0  0  0  0  0  0  0  0  0  0
    4.7167    1.9625    0.0000 N   0  0  0  0  0  0  0  0  0  0  0  0
    3.2667    2.3500    0.0000 N   0  0  0  0  0  0  0  0  0  0  0  0
    6.5667    2.4208    0.0000 C   0  0  0  0  0  0  0  0  0  0  0  0
    5.1792    1.0625    0.0000 O   0  0  0  0  0  0  0  0  0  0  0  0
    6.1167    1.4500    0.0000 O   0  0  0  0  0  0  0  0  0  0  0  0
    2.5417    2.5458    0.0000 C   0  0  0  0  0  0  0  0  0  0  0  0
    4.1875    1.4333    0.0000 C   0  0  0  0  0  0  0  0  0  0  0  0
    4.5167    2.6875    0.0000 C   0  0  0  0  0  0  0  0  0  0  0  0
    5.4417    3.0708    0.0000 C   0  0  0  0  0  0  0  0  0  0  0  0
    3.4625    1.6250    0.0000 C   0  0  0  0  0  0  0  0  0  0  0  0
    3.7917    2.8833    0.0000 C   0  0  0  0  0  0  0  0  0  0  0  0
    2.3500    3.2708    0.0000 C   0  0  0  0  0  0  0  0  0  0  0  0
    5.8167    3.7208    0.0000 C   0  0  0  0  0  0  0  0  0  0  0  0
    6.9417    3.0708    0.0000 C   0  0  0  0  0  0  0  0  0  0  0  0
    6.5667    3.7208    0.0000 C   0  0  0  0  0  0  0  0  0  0  0  0
    4.6917    3.0708    0.0000 O   0  0  0  0  0  0  0  0  0  0  0  0
    7.6917    3.0708    0.0000 O   0  0  0  0  0  0  0  0  0  0  0  0
    2.0042    2.0208    0.0000 C   0  0  0  0  0  0  0  0  0  0  0  0
    2.8792    3.8000    0.0000 C   0  0  0  0  0  0  0  0  0  0  0  0
    1.6250    3.4625    0.0000 C   0  0  0  0  0  0  0  0  0  0  0  0
    4.3167    3.7208    0.0000 C   0  0  0  0  0  0  0  0  0  0  0  0
    8.0667    3.7208    0.0000 C   0  0  0  0  0  0  0  0  0  0  0  0
    1.2875    2.2083    0.0000 C   0  0  0  0  0  0  0  0  0  0  0  0
    1.0917    2.9333    0.0000 C   0  0  0  0  0  0  0  0  0  0  0  0
  2  1  1  0  0  0  0
  3  1  1  0  0  0  0
  4 13  1  0  0  0  0
  4 12  1  0  0  0  0
  5  2  1  0  0  0  0
  6  1  2  0  0  0  0
  7  1  2  0  0  0  0
  8  4  1  0  0  0  0
  9  3  1  0  0  0  0
 10  3  1  0  0  0  0
 11  2  2  0  0  0  0
 12  9  1  0  0  0  0
 13 10  1  0  0  0  0
 14  8  1  0  0  0  0
 15 11  1  0  0  0  0
 16  5  2  0  0  0  0
 17 15  2  0  0  0  0
 17 16  1  0  0  0  0
 18 11  1  0  0  0  0
 19 16  1  0  0  0  0
 20  8  2  0  0  0  0
 21 14  1  0  0  0  0
 22 14  2  0  0  0  0
 22 26  1  0  0  0  0
 23 18  1  0  0  0  0
 24 19  1  0  0  0  0
 25 20  1  0  0  0  0
 26 25  2  0  0  0  0
M  END
>  <ID>
9048287

>  <Supplier>
ChemBridge

>  <clogP>
2.918000000000000e+000

>  <RB>
2

>  <tPSA>
5.908000000000001e+001

>  <Hacc>
5

>  <Hdon>
0

>  <LogSw>
-4.911000000000001e+000

>  <Group>
1

>  <Core>
161

$$$$
7394493
 OpenBabel03312015312D

 32 35  0  0  0  0  0  0  0  0999 V2000
    1.4292   -1.0542    0.0000 N   0  0  0  0  0  0  0  0  0  0  0  0
    1.6875   -1.8417    0.0000 C   0  0  0  0  0  0  0  0  0  0  0  0
    2.1000   -0.5667    0.0000 C   0  0  0  0  0  0  0  0  0  0  0  0
    2.7667   -1.0542    0.0000 C   0  0  0  0  0  0  0  0  0  0  0  0
    2.5042   -1.8417    0.0000 N   0  0  0  0  0  0  0  0  0  0  0  0
    6.9667    4.7542    0.0000 N   0  3  0  0  0  0  0  0  0  0  0  0
    0.6500   -0.8000    0.0000 C   0  0  0  0  0  0  0  0  0  0  0  0
    3.5542   -0.8000    0.0000 C   0  0  0  0  0  0  0  0  0  0  0  0
    6.1667    4.5125    0.0000 C   0  0  0  0  0  0  0  0  0  0  0  0
    0.0417   -1.3542    0.0000 C   0  0  0  0  0  0  0  0  0  0  0  0
    1.2000   -2.5042    0.0000 O   0  0  0  0  0  0  0  0  0  0  0  0
    7.5667    4.2000    0.0000 O   0  5  0  0  0  0  0  0  0  0  0  0
    7.1417    5.5542    0.0000 O   0  0  0  0  0  0  0  0  0  0  0  0
    2.0917    0.2583    0.0000 O   0  0  0  0  0  0  0  0  0  0  0  0
    5.9917    3.7208    0.0000 C   0  0  0  0  0  0  0  0  0  0  0  0
    3.7167    0.0083    0.0000 C   0  0  0  0  0  0  0  0  0  0  0  0
   -0.7458   -1.1042    0.0000 C   0  0  0  0  0  0  0  0  0  0  0  0
    4.2542    2.4208    0.0000 O   0  0  0  0  0  0  0  0  0  0  0  0
    4.0667    1.6125    0.0000 C   0  0  0  0  0  0  0  0  0  0  0  0
    5.2125    3.4833    0.0000 C   0  0  0  0  0  0  0  0  0  0  0  0
    5.0292    2.6833    0.0000 C   0  0  0  0  0  0  0  0  0  0  0  0
    0.4792    0.0083    0.0000 C   0  0  0  0  0  0  0  0  0  0  0  0
   -1.3583   -1.6542    0.0000 Cl  0  0  0  0  0  0  0  0  0  0  0  0
    4.5000    0.2625    0.0000 C   0  0  0  0  0  0  0  0  0  0  0  0
    3.1042    0.5708    0.0000 C   0  0  0  0  0  0  0  0  0  0  0  0
    3.2792    1.3708    0.0000 C   0  0  0  0  0  0  0  0  0  0  0  0
    4.6667    1.0708    0.0000 C   0  0  0  0  0  0  0  0  0  0  0  0
    5.5750    5.0750    0.0000 C   0  0  0  0  0  0  0  0  0  0  0  0
   -0.3083    0.2583    0.0000 C   0  0  0  0  0  0  0  0  0  0  0  0
    4.7792    4.8167    0.0000 C   0  0  0  0  0  0  0  0  0  0  0  0
   -0.9208   -0.2917    0.0000 C   0  0  0  0  0  0  0  0  0  0  0  0
    4.6042    4.0167    0.0000 C   0  0  0  0  0  0  0  0  0  0  0  0
  2  1  1  0  0  0  0
  3  1  1  0  0  0  0
  4  3  1  0  0  0  0
  5  2  1  0  0  0  0
  5  4  1  0  0  0  0
  6  9  1  0  0  0  0
  7  1  1  0  0  0  0
  8  4  2  0  0  0  0
  9 15  1  0  0  0  0
 10  7  1  0  0  0  0
 11  2  2  0  0  0  0
 12  6  1  0  0  0  0
 13  6  2  0  0  0  0
 14  3  2  0  0  0  0
 15 20  2  0  0  0  0
 16  8  1  0  0  0  0
 17 10  2  0  0  0  0
 17 31  1  0  0  0  0
 18 19  1  0  0  0  0
 19 26  2  0  0  0  0
 20 21  1  0  0  0  0
 21 18  1  0  0  0  0
 22  7  2  0  0  0  0
 23 17  1  0  0  0  0
 24 16  1  0  0  0  0
 25 16  2  0  0  0  0
 26 25  1  0  0  0  0
 27 24  2  0  0  0  0
 27 19  1  0  0  0  0
 28 30  1  0  0  0  0
 28  9  2  0  0  0  0
 29 22  1  0  0  0  0
 30 32  2  0  0  0  0
 31 29  2  0  0  0  0
 32 20  1  0  0  0  0
M  CHG  2   6   1  12  -1
M  END
>  <ID>
7394493

>  <Supplier>
ChemBridge

>  <clogP>
4.420000000000000e+000

>  <RB>
5

>  <tPSA>
1.017800000000000e+002

>  <Hacc>
5

>  <Hdon>
1

>  <LogSw>
-7.060000000000000e+000

>  <Group>
1

>  <Core>
003

$$$$
9027061
 OpenBabel03312015312D

 30 34  0  0  0  0  0  0  0  0999 V2000
    5.4042    2.5208    0.0000 C   0  0  0  0  0  0  0  0  0  0  0  0
    5.4042    3.2708    0.0000 C   0  0  0  0  0  0  0  0  0  0  0  0
    4.2500    2.8958    0.0000 C   0  0  0  0  0  0  0  0  0  0  0  0
    4.6875    2.2875    0.0000 N   0  0  0  0  0  0  0  0  0  0  0  0
    4.6875    3.5000    0.0000 N   0  0  0  0  0  0  0  0  0  0  0  0
    6.0542    3.6458    0.0000 N   0  0  0  0  0  0  0  0  0  0  0  0
    6.7000    2.5208    0.0000 N   0  0  0  0  0  0  0  0  0  0  0  0
    6.7000    3.2708    0.0000 C   0  0  0  0  0  0  0  0  0  0  0  0
    6.0542    2.1458    0.0000 C   0  0  0  0  0  0  0  0  0  0  0  0
    3.5292    2.6625    0.0000 N   0  0  0  0  0  0  0  0  0  0  0  0
    3.5292    1.9125    0.0000 C   0  0  0  0  0  0  0  0  0  0  0  0
    4.2500    1.6833    0.0000 C   0  0  0  0  0  0  0  0  0  0  0  0
    2.9292    3.1083    0.0000 C   0  0  0  0  0  0  0  0  0  0  0  0
    7.3500    3.6458    0.0000 O   0  0  0  0  0  0  0  0  0  0  0  0
    6.0542    1.3958    0.0000 O   0  0  0  0  0  0  0  0  0  0  0  0
    1.6375    3.2375    0.0000 N   0  0  0  0  0  0  0  0  0  0  0  0
    2.9292    1.4708    0.0000 C   0  0  0  0  0  0  0  0  0  0  0  0
    6.0542    4.3917    0.0000 C   0  0  0  0  0  0  0  0  0  0  0  0
    7.3500    2.1458    0.0000 C   0  0  0  0  0  0  0  0  0  0  0  0
    2.2417    2.8000    0.0000 C   0  0  0  0  0  0  0  0  0  0  0  0
    0.4250    4.1167    0.0000 O   0  0  0  0  0  0  0  0  0  0  0  0
    0.9500    2.9333    0.0000 C   0  0  0  0  0  0  0  0  0  0  0  0
    1.7167    3.9833    0.0000 C   0  0  0  0  0  0  0  0  0  0  0  0
    1.1042    4.4167    0.0000 C   0  0  0  0  0  0  0  0  0  0  0  0
    0.3417    3.3750    0.0000 C   0  0  0  0  0  0  0  0  0  0  0  0
    2.2417    1.7750    0.0000 C   0  0  0  0  0  0  0  0  0  0  0  0
    3.0042    0.7250    0.0000 C   0  0  0  0  0  0  0  0  0  0  0  0
    2.4000    0.2833    0.0000 C   0  0  0  0  0  0  0  0  0  0  0  0
    1.6375    1.3375    0.0000 C   0  0  0  0  0  0  0  0  0  0  0  0
    1.7167    0.5958    0.0000 C   0  0  0  0  0  0  0  0  0  0  0  0
  2  1  2  0  0  0  0
  3  4  1  0  0  0  0
  4  1  1  0  0  0  0
  5  2  1  0  0  0  0
  5  3  2  0  0  0  0
  6  2  1  0  0  0  0
  6  8  1  0  0  0  0
  7  9  1  0  0  0  0
  8  7  1  0  0  0  0
  9  1  1  0  0  0  0
 10  3  1  0  0  0  0
 11 12  2  0  0  0  0
 11 10  1  0  0  0  0
 12  4  1  0  0  0  0
 13 10  1  0  0  0  0
 14  8  2  0  0  0  0
 15  9  2  0  0  0  0
 16 20  1  0  0  0  0
 17 11  1  0  0  0  0
 18  6  1  0  0  0  0
 19  7  1  0  0  0  0
 20 13  1  0  0  0  0
 21 24  1  0  0  0  0
 22 16  1  0  0  0  0
 23 16  1  0  0  0  0
 24 23  1  0  0  0  0
 25 22  1  0  0  0  0
 25 21  1  0  0  0  0
 26 17  1  0  0  0  0
 27 17  2  0  0  0  0
 28 27  1  0  0  0  0
 29 26  2  0  0  0  0
 29 30  1  0  0  0  0
 30 28  2  0  0  0  0
M  END
>  <ID>
9027061

>  <Supplier>
ChemBridge

>  <clogP>
2.422000000000000e+000

>  <RB>
4

>  <tPSA>
7.870000000000000e+001

>  <Hacc>
5

>  <Hdon>
0

>  <LogSw>
-4.239000000000002e+000

>  <Group>
2

>  <Core>
131

$$$$
9027060
 OpenBabel03312015312D

 19 21  0  0  0  0  0  0  0  0999 V2000
    4.0292    1.8250    0.0000 N   0  0  0  0  0  0  0  0  0  0  0  0
    3.3167    1.5958    0.0000 N   0  0  0  0  0  0  0  0  0  0  0  0
    4.0292    0.6125    0.0000 N   0  0  0  0  0  0  0  0  0  0  0  0
    4.4667    1.2208    0.0000 C   0  0  0  0  0  0  0  0  0  0  0  0
    3.3167    0.8458    0.0000 N   0  0  0  0  0  0  0  0  0  0  0  0
    2.0250    1.7333    0.0000 C   0  0  0  0  0  0  0  0  0  0  0  0
    0.8167    1.6000    0.0000 N   0  0  0  0  0  0  0  0  0  0  0  0
    1.3750    2.1083    0.0000 N   0  0  0  0  0  0  0  0  0  0  0  0
    1.1250    0.9208    0.0000 N   0  0  0  0  0  0  0  0  0  0  0  0
    1.8667    0.9958    0.0000 N   0  0  0  0  0  0  0  0  0  0  0  0
    2.7125    2.0333    0.0000 C   0  0  0  0  0  0  0  0  0  0  0  0
    5.2167    1.2208    0.0000 C   0  0  0  0  0  0  0  0  0  0  0  0
    5.5917    0.5708    0.0000 C   0  0  0  0  0  0  0  0  0  0  0  0
    5.5917    1.8708    0.0000 C   0  0  0  0  0  0  0  0  0  0  0  0
    6.7167    1.2208    0.0000 C   0  0  0  0  0  0  0  0  0  0  0  0
    7.4667    1.2208    0.0000 S   0  0  0  0  0  0  0  0  0  0  0  0
    6.3417    1.8708    0.0000 C   0  0  0  0  0  0  0  0  0  0  0  0
    6.3417    0.5708    0.0000 C   0  0  0  0  0  0  0  0  0  0  0  0
    7.8417    0.5708    0.0000 C   0  0  0  0  0  0  0  0  0  0  0  0
  2  1  1  0  0  0  0
  3  4  1  0  0  0  0
  4  1  2  0  0  0  0
  5  2  1  0  0  0  0
  5  3  2  0  0  0  0
  6 11  1  0  0  0  0
  7  8  1  0  0  0  0
  8  6  2  0  0  0  0
  9 10  1  0  0  0  0
  9  7  2  0  0  0  0
 10  6  1  0  0  0  0
 11  2  1  0  0  0  0
 12  4  1  0  0  0  0
 13 12  2  0  0  0  0
 14 12  1  0  0  0  0
 15 17  1  0  0  0  0
 16 15  1  0  0  0  0
 17 14  2  0  0  0  0
 18 13  1  0  0  0  0
 18 15  2  0  0  0  0
 19 16  1  0  0  0  0
M  END
>  <ID>
9027060

>  <Supplier>
ChemBridge

>  <clogP>
7.630000000000000e-001

>  <RB>
3

>  <tPSA>
9.806000000000000e+001

>  <Hacc>
6

>  <Hdon>
1

>  <LogSw>
-1.853000000000000e+000

>  <Group>
2

>  <Core>
349

$$$$
9048288
 OpenBabel03312015312D

 21 23  0  0  0  0  0  0  0  0999 V2000
    3.0292    1.8333    0.0000 N   0  0  0  0  0  0  0  0  0  0  0  0
    2.5875    1.2250    0.0000 C   0  0  0  0  0  0  0  0  0  0  0  0
    3.0292    0.6208    0.0000 N   0  0  0  0  0  0  0  0  0  0  0  0
    3.7417    1.6000    0.0000 C   0  0  0  0  0  0  0  0  0  0  0  0
    3.7417    0.8500    0.0000 N   0  0  0  0  0  0  0  0  0  0  0  0
    4.3500    2.0458    0.0000 S   0  0  0  0  0  0  0  0  0  0  0  0
    1.8375    1.2250    0.0000 C   0  0  0  0  0  0  0  0  0  0  0  0
    6.9292    2.3125    0.0000 C   0  0  0  0  0  0  0  0  0  0  0  0
    5.6417    2.1750    0.0000 C   0  0  0  0  0  0  0  0  0  0  0  0
    6.3250    1.8708    0.0000 N   0  0  0  0  0  0  0  0  0  0  0  0
    7.6792    2.3958    0.0000 C   0  0  0  0  0  0  0  0  0  0  0  0
    7.2375    2.9958    0.0000 C   0  0  0  0  0  0  0  0  0  0  0  0
    1.4625    1.8750    0.0000 N   0  0  0  0  0  0  0  0  0  0  0  0
    5.5625    2.9208    0.0000 O   0  0  0  0  0  0  0  0  0  0  0  0
    2.7917    2.5458    0.0000 C   0  0  0  0  0  0  0  0  0  0  0  0
    5.0292    1.7375    0.0000 C   0  0  0  0  0  0  0  0  0  0  0  0
    0.7125    1.8750    0.0000 C   0  0  0  0  0  0  0  0  0  0  0  0
    1.4625    0.5750    0.0000 C   0  0  0  0  0  0  0  0  0  0  0  0
    3.3000    3.1083    0.0000 C   0  0  0  0  0  0  0  0  0  0  0  0
    0.3375    1.2250    0.0000 C   0  0  0  0  0  0  0  0  0  0  0  0
    0.7125    0.5750    0.0000 C   0  0  0  0  0  0  0  0  0  0  0  0
  2  1  1  0  0  0  0
  3  2  2  0  0  0  0
  4  1  1  0  0  0  0
  5  4  2  0  0  0  0
  5  3  1  0  0  0  0
  6  4  1  0  0  0  0
  7  2  1  0  0  0  0
  8 10  1  0  0  0  0
  9 16  1  0  0  0  0
 10  9  1  0  0  0  0
 11  8  1  0  0  0  0
 12  8  1  0  0  0  0
 12 11  1  0  0  0  0
 13  7  1  0  0  0  0
 14  9  2  0  0  0  0
 15  1  1  0  0  0  0
 16  6  1  0  0  0  0
 17 13  2  0  0  0  0
 17 20  1  0  0  0  0
 18  7  2  0  0  0  0
 19 15  1  0  0  0  0
 20 21  2  0  0  0  0
 21 18  1  0  0  0  0
M  END
>  <ID>
9048288

>  <Supplier>
ChemBridge

>  <clogP>
-4.900000000000000e-002

>  <RB>
5

>  <tPSA>
7.270000000000000e+001

>  <Hacc>
4

>  <Hdon>
1

>  <LogSw>
-2.491000000000000e+000

>  <Group>
1

>  <Core>
009

$$$$
7801569
 OpenBabel03312015312D

 21 22  0  0  0  0  0  0  0  0999 V2000
    3.0500   -3.5542    0.0000 C   0  0  0  0  0  0  0  0  0  0  0  0
    3.0500   -2.7292    0.0000 N   0  0  0  0  0  0  0  0  0  0  0  0
    2.3292   -3.9667    0.0000 N   0  0  0  0  0  0  0  0  0  0  0  0
    2.3292   -2.3167    0.0000 C   0  0  0  0  0  0  0  0  0  0  0  0
    1.6167   -2.7292    0.0000 N   0  0  0  0  0  0  0  0  0  0  0  0
    1.6167   -3.5542    0.0000 C   0  0  0  0  0  0  0  0  0  0  0  0
    3.7667   -3.9667    0.0000 N   0  0  0  0  0  0  0  0  0  0  0  0
    2.3292   -1.4917    0.0000 S   0  0  0  0  0  0  0  0  0  0  0  0
    3.0417   -0.2542    0.0000 C   0  0  0  0  0  0  0  0  0  0  0  0
    3.0417   -1.0792    0.0000 C   0  0  3  0  0  0  0  0  0  0  0  0
    2.3042    0.1583    0.0000 O   0  0  0  0  0  0  0  0  0  0  0  0
    0.9042   -3.9667    0.0000 N   0  0  0  0  0  0  0  0  0  0  0  0
    5.1917   -4.7917    0.0000 O   0  0  0  0  0  0  0  0  0  0  0  0
    3.7500    0.1500    0.0000 O   0  0  0  0  0  0  0  0  0  0  0  0
    3.7667   -4.8000    0.0000 C   0  0  0  0  0  0  0  0  0  0  0  0
    4.4792   -3.5625    0.0000 C   0  0  0  0  0  0  0  0  0  0  0  0
    4.4875   -5.2125    0.0000 C   0  0  0  0  0  0  0  0  0  0  0  0
    5.1917   -3.9667    0.0000 C   0  0  0  0  0  0  0  0  0  0  0  0
    3.7542   -1.4875    0.0000 C   0  0  0  0  0  0  0  0  0  0  0  0
    0.1917   -3.5542    0.0000 C   0  0  0  0  0  0  0  0  0  0  0  0
    3.7542    0.9708    0.0000 C   0  0  0  0  0  0  0  0  0  0  0  0
  2  1  1  0  0  0  0
  3  1  2  0  0  0  0
  4  2  2  0  0  0  0
  4  5  1  0  0  0  0
  5  6  2  0  0  0  0
  6  3  1  0  0  0  0
  7  1  1  0  0  0  0
  8  4  1  0  0  0  0
  9 10  1  0  0  0  0
 10  8  1  0  0  0  0
 11  9  2  0  0  0  0
 12  6  1  0  0  0  0
 13 18  1  0  0  0  0
 14  9  1  0  0  0  0
 15  7  1  0  0  0  0
 16  7  1  0  0  0  0
 17 15  1  0  0  0  0
 17 13  1  0  0  0  0
 18 16  1  0  0  0  0
 19 10  1  0  0  0  0
 20 12  1  0  0  0  0
 21 14  1  0  0  0  0
M  END
>  <ID>
7801569

>  <Supplier>
ChemBridge

>  <clogP>
1.610000000000000e+000

>  <RB>
4

>  <tPSA>
8.947000000000000e+001

>  <Hacc>
6

>  <Hdon>
1

>  <LogSw>
-2.860000000000000e+000

>  <Group>
2

>  <Core>
026

$$$$
5428923
 OpenBabel03312015312D

 18 19  0  0  0  0  0  0  0  0999 V2000
   -1.9500    2.2083    0.0000 N   0  0  0  0  0  0  0  0  0  0  0  0
    0.7500    2.1500    0.0000 C   0  0  0  0  0  0  0  0  0  0  0  0
    0.7500    2.9333    0.0000 C   0  0  0  0  0  0  0  0  0  0  0  0
    0.0792    1.7833    0.0000 C   0  0  0  0  0  0  0  0  0  0  0  0
   -0.5958    2.1500    0.0000 C   0  0  0  0  0  0  0  0  0  0  0  0
   -1.2708    1.8125    0.0000 C   0  0  0  0  0  0  0  0  0  0  0  0
   -2.6333    1.8125    0.0000 C   0  0  0  0  0  0  0  0  0  0  0  0
    0.0792    3.3208    0.0000 C   0  0  0  0  0  0  0  0  0  0  0  0
   -0.5958    2.9333    0.0000 C   0  0  0  0  0  0  0  0  0  0  0  0
    1.4167    1.7625    0.0000 O   0  0  0  0  0  0  0  0  0  0  0  0
   -1.9500    2.9958    0.0000 C   0  0  0  0  0  0  0  0  0  0  0  0
    1.4167    3.3208    0.0000 O   0  0  0  0  0  0  0  0  0  0  0  0
   -3.3125    2.2083    0.0000 C   0  0  3  0  0  0  0  0  0  0  0  0
   -2.6333    3.3958    0.0000 C   0  0  0  0  0  0  0  0  0  0  0  0
   -3.3125    2.9958    0.0000 C   0  0  0  0  0  0  0  0  0  0  0  0
    1.4167    0.9833    0.0000 C   0  0  0  0  0  0  0  0  0  0  0  0
    1.4292    4.0917    0.0000 C   0  0  0  0  0  0  0  0  0  0  0  0
   -3.9958    1.8000    0.0000 C   0  0  0  0  0  0  0  0  0  0  0  0
  2  4  2  0  0  0  0
  3  8  2  0  0  0  0
  3  2  1  0  0  0  0
  4  5  1  0  0  0  0
  5  6  1  0  0  0  0
  6  1  1  0  0  0  0
  7  1  1  0  0  0  0
  8  9  1  0  0  0  0
  9  5  2  0  0  0  0
 10  2  1  0  0  0  0
 11  1  1  0  0  0  0
 12  3  1  0  0  0  0
 13  7  1  0  0  0  0
 14 11  1  0  0  0  0
 15 14  1  0  0  0  0
 15 13  1  0  0  0  0
 16 10  1  0  0  0  0
 17 12  1  0  0  0  0
 18 13  1  0  0  0  0
M  END
>  <ID>
5428923

>  <Supplier>
ChemBridge

>  <clogP>
3.340000000000000e+000

>  <RB>
2

>  <tPSA>
2.170000000000000e+001

>  <Hacc>
3

>  <Hdon>
0

>  <LogSw>
-2.864000000000000e+000

>  <Group>
3

$$$$
5428922
 OpenBabel03312015312D

 24 27  0  0  0  0  0  0  0  0999 V2000
    5.1542    2.8958    0.0000 C   0  0  3  0  0  0  0  0  0  0  0  0
    5.9042    2.8958    0.0000 C   0  0  0  0  0  0  0  0  0  0  0  0
    4.7792    3.5458    0.0000 C   0  0  0  0  0  0  0  0  0  0  0  0
    8.4917    2.6333    0.0000 N   0  0  0  0  0  0  0  0  0  0  0  0
    9.2292    2.7583    0.0000 C   0  0  0  0  0  0  0  0  0  0  0  0
    5.1542    4.1792    0.0000 C   0  0  3  0  0  0  0  0  0  0  0  0
    5.9292    3.5458    0.0000 C   0  0  0  0  0  0  0  0  0  0  0  0
    6.2792    3.5458    0.0000 C   0  0  0  0  0  0  0  0  0  0  0  0
    7.0167    2.3708    0.0000 N   0  0  0  0  0  0  0  0  0  0  0  0
    6.2792    2.2375    0.0000 C   0  0  0  0  0  0  0  0  0  0  0  0
    5.9042    4.1792    0.0000 C   0  0  0  0  0  0  0  0  0  0  0  0
    9.7167    2.1833    0.0000 C   0  0  0  0  0  0  0  0  0  0  0  0
    9.4917    3.4625    0.0000 C   0  0  0  0  0  0  0  0  0  0  0  0
    8.0125    3.2083    0.0000 C   0  0  0  0  0  0  0  0  0  0  0  0
    8.2375    1.9250    0.0000 C   0  0  0  0  0  0  0  0  0  0  0  0
   10.4542    2.3208    0.0000 C   0  0  0  0  0  0  0  0  0  0  0  0
    7.2750    3.0833    0.0000 C   0  0  0  0  0  0  0  0  0  0  0  0
    7.5000    1.7958    0.0000 C   0  0  0  0  0  0  0  0  0  0  0  0
   10.2292    3.5958    0.0000 C   0  0  0  0  0  0  0  0  0  0  0  0
   10.7042    3.0208    0.0000 C   0  0  0  0  0  0  0  0  0  0  0  0
    4.2042    4.0167    0.0000 C   0  0  0  0  0  0  0  0  0  0  0  0
    4.2042    3.0583    0.0000 C   0  0  0  0  0  0  0  0  0  0  0  0
    9.4542    1.4833    0.0000 C   0  0  0  0  0  0  0  0  0  0  0  0
   10.4875    4.2917    0.0000 C   0  0  0  0  0  0  0  0  0  0  0  0
  2  1  1  0  0  0  0
  3  1  1  0  0  0  0
  4 15  1  0  0  0  0
  5  4  1  0  0  0  0
  6  7  1  0  0  0  0
  6  3  1  0  0  0  0
  7  1  1  0  0  0  0
  8  2  2  0  0  0  0
  9 10  1  0  0  0  0
 10  2  1  0  0  0  0
 11  6  1  0  0  0  0
 11  8  1  0  0  0  0
 12  5  1  0  0  0  0
 13  5  2  0  0  0  0
 14 17  1  0  0  0  0
 14  4  1  0  0  0  0
 15 18  1  0  0  0  0
 16 12  2  0  0  0  0
 17  9  1  0  0  0  0
 18  9  1  0  0  0  0
 19 13  1  0  0  0  0
 20 19  2  0  0  0  0
 20 16  1  0  0  0  0
 21  3  1  0  0  0  0
 22  3  1  0  0  0  0
 23 12  1  0  0  0  0
 24 19  1  0  0  0  0
M  END
>  <ID>
5428922

>  <Supplier>
ChemBridge

>  <clogP>
5.510000000000000e+000

>  <RB>
3

>  <tPSA>
6.480000000000000e+000

>  <Hacc>
1

>  <Hdon>
0

>  <LogSw>
-5.263999999999999e+000

>  <Group>
2

>  <Core>
162

$$$$
5210229
 OpenBabel03312015312D

 30 33  0  0  0  0  0  0  0  0999 V2000
   -1.1000   -0.4792    0.0000 N   0  0  0  0  0  0  0  0  0  0  0  0
   -2.7000   -0.4792    0.0000 N   0  0  0  0  0  0  0  0  0  0  0  0
   -2.6833    0.4458    0.0000 C   0  0  0  0  0  0  0  0  0  0  0  0
   -1.8833    0.9208    0.0000 C   0  0  3  0  0  0  0  0  0  0  0  0
   -1.1000    0.4458    0.0000 C   0  0  3  0  0  0  0  0  0  0  0  0
   -0.2833   -0.9500    0.0000 C   0  0  0  0  0  0  0  0  0  0  0  0
    0.5667   -0.5167    0.0000 C   0  0  0  0  0  0  0  0  0  0  0  0
   -3.4833    0.9208    0.0000 C   0  0  0  0  0  0  0  0  0  0  0  0
   -1.8833    1.8458    0.0000 C   0  0  0  0  0  0  0  0  0  0  0  0
    1.3667   -1.0375    0.0000 C   0  0  0  0  0  0  0  0  0  0  0  0
   -3.4833    1.8458    0.0000 C   0  0  0  0  0  0  0  0  0  0  0  0
   -0.3000    0.9208    0.0000 C   0  0  0  0  0  0  0  0  0  0  0  0
   -4.2708    0.4458    0.0000 C   0  0  0  0  0  0  0  0  0  0  0  0
   -2.6833    2.3000    0.0000 C   0  0  0  0  0  0  0  0  0  0  0  0
    2.2292   -0.6292    0.0000 O   0  0  0  0  0  0  0  0  0  0  0  0
   -4.2708    2.3000    0.0000 C   0  0  0  0  0  0  0  0  0  0  0  0
   -0.3000    1.8458    0.0000 C   0  0  0  0  0  0  0  0  0  0  0  0
    0.5000    0.4458    0.0000 C   0  0  0  0  0  0  0  0  0  0  0  0
   -5.0625    0.9208    0.0000 C   0  0  0  0  0  0  0  0  0  0  0  0
    1.3167    1.8458    0.0000 C   0  0  0  0  0  0  0  0  0  0  0  0
    1.3542   -2.0042    0.0000 O   0  0  0  0  0  0  0  0  0  0  0  0
   -5.0625    1.8458    0.0000 C   0  0  0  0  0  0  0  0  0  0  0  0
    1.3000    0.9208    0.0000 C   0  0  0  0  0  0  0  0  0  0  0  0
    0.5000    2.3000    0.0000 C   0  0  0  0  0  0  0  0  0  0  0  0
    2.1542    2.3000    0.0000 F   0  0  0  0  0  0  0  0  0  0  0  0
   -0.2625   -1.9667    0.0000 C   0  0  0  0  0  0  0  0  0  0  0  0
   -5.8833    0.4333    0.0000 O   0  0  0  0  0  0  0  0  0  0  0  0
    2.1792   -2.4875    0.0000 C   0  0  0  0  0  0  0  0  0  0  0  0
   -5.8833   -0.5167    0.0000 C   0  0  0  0  0  0  0  0  0  0  0  0
    2.9875   -2.0167    0.0000 C   0  0  0  0  0  0  0  0  0  0  0  0
  2  1  1  0  0  0  0
  3  2  2  0  0  0  0
  3  4  1  0  0  0  0
  4  5  1  0  0  0  0
  5  1  1  0  0  0  0
  6  1  1  0  0  0  0
  7  6  2  0  0  0  0
  8  3  1  0  0  0  0
  9  4  1  0  0  0  0
 10  7  1  0  0  0  0
 11  8  2  0  0  0  0
 11 14  1  0  0  0  0
 12  5  1  0  0  0  0
 13  8  1  0  0  0  0
 14  9  1  0  0  0  0
 15 10  2  0  0  0  0
 16 11  1  0  0  0  0
 16 22  2  0  0  0  0
 17 12  1  0  0  0  0
 18 12  2  0  0  0  0
 19 13  2  0  0  0  0
 20 23  2  0  0  0  0
 21 10  1  0  0  0  0
 22 19  1  0  0  0  0
 23 18  1  0  0  0  0
 24 17  2  0  0  0  0
 24 20  1  0  0  0  0
 25 20  1  0  0  0  0
 26  6  1  0  0  0  0
 27 19  1  0  0  0  0
 28 21  1  0  0  0  0
 29 27  1  0  0  0  0
 30 28  1  0  0  0  0
M  END
>  <ID>
5210229

>  <Supplier>
ChemBridge

>  <clogP>
6.230000000000000e+000

>  <RB>
3

>  <tPSA>
5.113000000000000e+001

>  <Hacc>
4

>  <Hdon>
0

>  <LogSw>
-7.498000000000000e+000

>  <Group>
1

>  <Core>
196

$$$$
9110495
 OpenBabel03312015312D

 21 22  0  0  0  0  0  0  0  0999 V2000
    6.7167    2.0333    0.0000 C   0  0  0  0  0  0  0  0  0  0  0  0
    7.0917    1.3833    0.0000 N   0  0  0  0  0  0  0  0  0  0  0  0
    7.0917    2.6833    0.0000 N   0  0  0  0  0  0  0  0  0  0  0  0
    0.7167    0.7333    0.0000 N   0  0  0  0  0  0  0  0  0  0  0  0
    1.4667    0.7333    0.0000 C   0  0  0  0  0  0  0  0  0  0  0  0
    4.8417    1.3833    0.0000 C   0  0  0  0  0  0  0  0  0  0  0  0
    5.9667    2.0333    0.0000 S   0  0  0  0  0  0  0  0  0  0  0  0
    4.4667    0.7333    0.0000 N   0  0  0  0  0  0  0  0  0  0  0  0
    7.8417    1.3833    0.0000 C   0  0  0  0  0  0  0  0  0  0  0  0
    7.8417    2.6833    0.0000 C   0  0  0  0  0  0  0  0  0  0  0  0
    8.2167    2.0333    0.0000 C   0  0  0  0  0  0  0  0  0  0  0  0
    4.4667    2.0333    0.0000 O   0  0  0  0  0  0  0  0  0  0  0  0
    5.5917    1.3833    0.0000 C   0  0  0  0  0  0  0  0  0  0  0  0
    2.2167    0.7333    0.0000 C   0  0  0  0  0  0  0  0  0  0  0  0
    3.7167    0.7333    0.0000 C   0  0  0  0  0  0  0  0  0  0  0  0
    2.5917    0.0833    0.0000 C   0  0  0  0  0  0  0  0  0  0  0  0
    2.5917    1.3833    0.0000 C   0  0  0  0  0  0  0  0  0  0  0  0
    3.3417    0.0833    0.0000 C   0  0  0  0  0  0  0  0  0  0  0  0
    3.3417    1.3833    0.0000 C   0  0  0  0  0  0  0  0  0  0  0  0
    8.2167    0.7333    0.0000 C   0  0  0  0  0  0  0  0  0  0  0  0
    8.2167    3.3333    0.0000 C   0  0  0  0  0  0  0  0  0  0  0  0
  2  1  1  0  0  0  0
  3  1  2  0  0  0  0
  4  5  3  0  0  0  0
  5 14  1  0  0  0  0
  6 13  1  0  0  0  0
  7  1  1  0  0  0  0
  8  6  1  0  0  0  0
  9  2  2  0  0  0  0
  9 11  1  0  0  0  0
 10  3  1  0  0  0  0
 11 10  2  0  0  0  0
 12  6  2  0  0  0  0
 13  7  1  0  0  0  0
 14 17  2  0  0  0  0
 14 16  1  0  0  0  0
 15  8  1  0  0  0  0
 16 18  2  0  0  0  0
 17 19  1  0  0  0  0
 18 15  1  0  0  0  0
 19 15  2  0  0  0  0
 20  9  1  0  0  0  0
 21 10  1  0  0  0  0
M  END
>  <ID>
9110495

>  <Supplier>
ChemBridge

>  <clogP>
2.457000000000000e+000

>  <RB>
4

>  <tPSA>
7.866999999999999e+001

>  <Hacc>
4

>  <Hdon>
1

>  <LogSw>
-3.739000000000000e+000

>  <Group>
2

$$$$
5210225
 OpenBabel03312015312D

 27 30  0  0  0  0  0  0  0  0999 V2000
   -1.1000   -0.4792    0.0000 N   0  0  0  0  0  0  0  0  0  0  0  0
   -2.7000   -0.4792    0.0000 N   0  0  0  0  0  0  0  0  0  0  0  0
   -2.6833    0.4458    0.0000 C   0  0  0  0  0  0  0  0  0  0  0  0
   -1.8833    0.9208    0.0000 C   0  0  3  0  0  0  0  0  0  0  0  0
   -1.1000    0.4458    0.0000 C   0  0  3  0  0  0  0  0  0  0  0  0
    2.1542    2.3000    0.0000 N   0  3  0  0  0  0  0  0  0  0  0  0
   -3.4833    0.9208    0.0000 C   0  0  0  0  0  0  0  0  0  0  0  0
   -0.2833   -0.9500    0.0000 C   0  0  0  0  0  0  0  0  0  0  0  0
   -1.8833    1.8458    0.0000 C   0  0  0  0  0  0  0  0  0  0  0  0
    1.3167    1.8458    0.0000 C   0  0  0  0  0  0  0  0  0  0  0  0
   -3.4833    1.8458    0.0000 C   0  0  0  0  0  0  0  0  0  0  0  0
   -0.3000    0.9208    0.0000 C   0  0  0  0  0  0  0  0  0  0  0  0
    3.0292    1.8833    0.0000 O   0  5  0  0  0  0  0  0  0  0  0  0
    2.2500    3.2500    0.0000 O   0  0  0  0  0  0  0  0  0  0  0  0
   -4.2708    0.4458    0.0000 C   0  0  0  0  0  0  0  0  0  0  0  0
   -0.2208   -1.9042    0.0000 O   0  0  0  0  0  0  0  0  0  0  0  0
   -2.6833    2.3000    0.0000 C   0  0  0  0  0  0  0  0  0  0  0  0
    0.5000    2.3000    0.0000 C   0  0  0  0  0  0  0  0  0  0  0  0
    1.3000    0.9208    0.0000 C   0  0  0  0  0  0  0  0  0  0  0  0
   -0.3000    1.8458    0.0000 C   0  0  0  0  0  0  0  0  0  0  0  0
    0.5000    0.4458    0.0000 C   0  0  0  0  0  0  0  0  0  0  0  0
   -4.2708    2.3000    0.0000 C   0  0  0  0  0  0  0  0  0  0  0  0
   -5.0625    0.9208    0.0000 C   0  0  0  0  0  0  0  0  0  0  0  0
   -5.0625    1.8458    0.0000 C   0  0  0  0  0  0  0  0  0  0  0  0
   -5.8833    0.4333    0.0000 O   0  0  0  0  0  0  0  0  0  0  0  0
    0.5667   -0.5167    0.0000 C   0  0  0  0  0  0  0  0  0  0  0  0
   -5.8833   -0.5167    0.0000 C   0  0  0  0  0  0  0  0  0  0  0  0
  2  1  1  0  0  0  0
  3  2  2  0  0  0  0
  3  4  1  0  0  0  0
  4  5  1  0  0  0  0
  5  1  1  0  0  0  0
  6 10  1  0  0  0  0
  7  3  1  0  0  0  0
  8  1  1  0  0  0  0
  9  4  1  0  0  0  0
 10 19  2  0  0  0  0
 11  7  2  0  0  0  0
 11 17  1  0  0  0  0
 12  5  1  0  0  0  0
 13  6  1  0  0  0  0
 14  6  2  0  0  0  0
 15  7  1  0  0  0  0
 16  8  2  0  0  0  0
 17  9  1  0  0  0  0
 18 20  2  0  0  0  0
 18 10  1  0  0  0  0
 19 21  1  0  0  0  0
 20 12  1  0  0  0  0
 21 12  2  0  0  0  0
 22 11  1  0  0  0  0
 23 15  2  0  0  0  0
 24 23  1  0  0  0  0
 24 22  2  0  0  0  0
 25 23  1  0  0  0  0
 26  8  1  0  0  0  0
 27 25  1  0  0  0  0
M  CHG  2   6   1  13  -1
M  END
>  <ID>
5210225

>  <Supplier>
ChemBridge

>  <clogP>
5.420000000000000e+000

>  <RB>
1

>  <tPSA>
8.504000000000002e+001

>  <Hacc>
5

>  <Hdon>
0

>  <LogSw>
-6.883000000000000e+000

>  <Group>
1

>  <Core>
196

$$$$
5210224
 OpenBabel03312015312D

 27 30  0  0  0  0  0  0  0  0999 V2000
   -1.1000   -0.4792    0.0000 N   0  0  0  0  0  0  0  0  0  0  0  0
   -2.7000   -0.4792    0.0000 N   0  0  0  0  0  0  0  0  0  0  0  0
   -2.6833    0.4458    0.0000 C   0  0  0  0  0  0  0  0  0  0  0  0
   -1.8833    0.9208    0.0000 C   0  0  3  0  0  0  0  0  0  0  0  0
   -1.1000    0.4458    0.0000 C   0  0  3  0  0  0  0  0  0  0  0  0
    2.1542    2.3000    0.0000 N   0  3  0  0  0  0  0  0  0  0  0  0
   -3.4833    0.9208    0.0000 C   0  0  0  0  0  0  0  0  0  0  0  0
   -0.2833   -0.9500    0.0000 C   0  0  0  0  0  0  0  0  0  0  0  0
   -3.4833    1.8458    0.0000 C   0  0  0  0  0  0  0  0  0  0  0  0
   -1.8833    1.8458    0.0000 C   0  0  0  0  0  0  0  0  0  0  0  0
    1.3167    1.8458    0.0000 C   0  0  0  0  0  0  0  0  0  0  0  0
   -4.2708    0.4458    0.0000 C   0  0  0  0  0  0  0  0  0  0  0  0
   -0.3000    0.9208    0.0000 C   0  0  0  0  0  0  0  0  0  0  0  0
    3.0292    1.8833    0.0000 O   0  5  0  0  0  0  0  0  0  0  0  0
    2.2500    3.2500    0.0000 O   0  0  0  0  0  0  0  0  0  0  0  0
   -2.6833    2.3000    0.0000 C   0  0  0  0  0  0  0  0  0  0  0  0
   -4.2708    2.3000    0.0000 C   0  0  0  0  0  0  0  0  0  0  0  0
   -0.2208   -1.9042    0.0000 O   0  0  0  0  0  0  0  0  0  0  0  0
    0.5000    2.3000    0.0000 C   0  0  0  0  0  0  0  0  0  0  0  0
    1.3000    0.9208    0.0000 C   0  0  0  0  0  0  0  0  0  0  0  0
   -0.3000    1.8458    0.0000 C   0  0  0  0  0  0  0  0  0  0  0  0
    0.5000    0.4458    0.0000 C   0  0  0  0  0  0  0  0  0  0  0  0
   -5.0625    1.8458    0.0000 C   0  0  0  0  0  0  0  0  0  0  0  0
   -5.0625    0.9208    0.0000 C   0  0  0  0  0  0  0  0  0  0  0  0
   -5.9083    2.3125    0.0000 O   0  0  0  0  0  0  0  0  0  0  0  0
    0.5667   -0.5167    0.0000 C   0  0  0  0  0  0  0  0  0  0  0  0
   -6.7292    1.8458    0.0000 C   0  0  0  0  0  0  0  0  0  0  0  0
  2  1  1  0  0  0  0
  3  2  2  0  0  0  0
  4  5  1  0  0  0  0
  4  3  1  0  0  0  0
  5  1  1  0  0  0  0
  6 11  1  0  0  0  0
  7  3  1  0  0  0  0
  8  1  1  0  0  0  0
  9  7  2  0  0  0  0
 10  4  1  0  0  0  0
 11 20  2  0  0  0  0
 11 19  1  0  0  0  0
 12  7  1  0  0  0  0
 13  5  1  0  0  0  0
 14  6  1  0  0  0  0
 15  6  2  0  0  0  0
 16 10  1  0  0  0  0
 16  9  1  0  0  0  0
 17  9  1  0  0  0  0
 17 23  2  0  0  0  0
 18  8  2  0  0  0  0
 19 21  2  0  0  0  0
 20 22  1  0  0  0  0
 21 13  1  0  0  0  0
 22 13  2  0  0  0  0
 23 24  1  0  0  0  0
 24 12  2  0  0  0  0
 25 23  1  0  0  0  0
 26  8  1  0  0  0  0
 27 25  1  0  0  0  0
M  CHG  2   6   1  14  -1
M  END
>  <ID>
5210224

>  <Supplier>
ChemBridge

>  <clogP>
5.420000000000000e+000

>  <RB>
1

>  <tPSA>
8.504000000000002e+001

>  <Hacc>
5

>  <Hdon>
0

>  <LogSw>
-6.883000000000000e+000

>  <Group>
1

>  <Core>
196

$$$$
5210227
 OpenBabel03312015312D

 25 28  0  0  0  0  0  0  0  0999 V2000
   -1.1000   -0.4792    0.0000 N   0  0  0  0  0  0  0  0  0  0  0  0
   -2.7000   -0.4792    0.0000 N   0  0  0  0  0  0  0  0  0  0  0  0
   -2.6833    0.4458    0.0000 C   0  0  0  0  0  0  0  0  0  0  0  0
   -1.8833    0.9208    0.0000 C   0  0  3  0  0  0  0  0  0  0  0  0
   -1.1000    0.4458    0.0000 C   0  0  3  0  0  0  0  0  0  0  0  0
   -3.4833    0.9208    0.0000 C   0  0  0  0  0  0  0  0  0  0  0  0
   -0.2833   -0.9500    0.0000 C   0  0  0  0  0  0  0  0  0  0  0  0
   -1.8833    1.8458    0.0000 C   0  0  0  0  0  0  0  0  0  0  0  0
   -3.4833    1.8458    0.0000 C   0  0  0  0  0  0  0  0  0  0  0  0
   -0.3000    0.9208    0.0000 C   0  0  0  0  0  0  0  0  0  0  0  0
   -4.2708    0.4458    0.0000 C   0  0  0  0  0  0  0  0  0  0  0  0
    0.5667   -0.5167    0.0000 O   0  0  0  0  0  0  0  0  0  0  0  0
   -2.6833    2.3000    0.0000 C   0  0  0  0  0  0  0  0  0  0  0  0
   -4.2708    2.3000    0.0000 C   0  0  0  0  0  0  0  0  0  0  0  0
   -0.3000    1.8458    0.0000 C   0  0  0  0  0  0  0  0  0  0  0  0
    0.5000    0.4458    0.0000 C   0  0  0  0  0  0  0  0  0  0  0  0
   -5.0625    0.9208    0.0000 C   0  0  0  0  0  0  0  0  0  0  0  0
    1.3167    1.8458    0.0000 C   0  0  0  0  0  0  0  0  0  0  0  0
   -5.0625    1.8458    0.0000 C   0  0  0  0  0  0  0  0  0  0  0  0
    1.3000    0.9208    0.0000 C   0  0  0  0  0  0  0  0  0  0  0  0
    0.5000    2.3000    0.0000 C   0  0  0  0  0  0  0  0  0  0  0  0
    2.1542    2.3000    0.0000 F   0  0  0  0  0  0  0  0  0  0  0  0
   -5.8833    0.4333    0.0000 O   0  0  0  0  0  0  0  0  0  0  0  0
   -0.2625   -1.9667    0.0000 C   0  0  0  0  0  0  0  0  0  0  0  0
   -5.8833   -0.5167    0.0000 C   0  0  0  0  0  0  0  0  0  0  0  0
  2  1  1  0  0  0  0
  3  2  2  0  0  0  0
  3  4  1  0  0  0  0
  4  5  1  0  0  0  0
  5  1  1  0  0  0  0
  6  3  1  0  0  0  0
  7  1  1  0  0  0  0
  8  4  1  0  0  0  0
  9  6  2  0  0  0  0
  9 13  1  0  0  0  0
 10  5  1  0  0  0  0
 11  6  1  0  0  0  0
 12  7  2  0  0  0  0
 13  8  1  0  0  0  0
 14  9  1  0  0  0  0
 14 19  2  0  0  0  0
 15 10  1  0  0  0  0
 16 10  2  0  0  0  0
 17 11  2  0  0  0  0
 18 20  2  0  0  0  0
 19 17  1  0  0  0  0
 20 16  1  0  0  0  0
 21 15  2  0  0  0  0
 21 18  1  0  0  0  0
 22 18  1  0  0  0  0
 23 17  1  0  0  0  0
 24  7  1  0  0  0  0
 25 23  1  0  0  0  0
M  END
>  <ID>
5210227

>  <Supplier>
ChemBridge

>  <clogP>
5.819999999999999e+000

>  <RB>
1

>  <tPSA>
4.189999999999998e+001

>  <Hacc>
3

>  <Hdon>
0

>  <LogSw>
-6.638000000000000e+000

>  <Group>
3

>  <Core>
196

$$$$
5210226
 OpenBabel03312015312D

 30 33  0  0  0  0  0  0  0  0999 V2000
   -1.1000   -0.4792    0.0000 N   0  0  0  0  0  0  0  0  0  0  0  0
   -2.7000   -0.4792    0.0000 N   0  0  0  0  0  0  0  0  0  0  0  0
   -2.6833    0.4458    0.0000 C   0  0  0  0  0  0  0  0  0  0  0  0
   -1.8833    0.9208    0.0000 C   0  0  3  0  0  0  0  0  0  0  0  0
   -1.1000    0.4458    0.0000 C   0  0  3  0  0  0  0  0  0  0  0  0
   -0.2833   -0.9500    0.0000 C   0  0  0  0  0  0  0  0  0  0  0  0
    0.5667   -0.5167    0.0000 C   0  0  0  0  0  0  0  0  0  0  0  0
   -3.4833    0.9208    0.0000 C   0  0  0  0  0  0  0  0  0  0  0  0
   -3.4833    1.8458    0.0000 C   0  0  0  0  0  0  0  0  0  0  0  0
   -1.8833    1.8458    0.0000 C   0  0  0  0  0  0  0  0  0  0  0  0
    1.3667   -1.0375    0.0000 C   0  0  0  0  0  0  0  0  0  0  0  0
   -4.2708    0.4458    0.0000 C   0  0  0  0  0  0  0  0  0  0  0  0
   -0.3000    0.9208    0.0000 C   0  0  0  0  0  0  0  0  0  0  0  0
   -2.6833    2.3000    0.0000 C   0  0  0  0  0  0  0  0  0  0  0  0
   -4.2708    2.3000    0.0000 C   0  0  0  0  0  0  0  0  0  0  0  0
    2.2292   -0.6292    0.0000 O   0  0  0  0  0  0  0  0  0  0  0  0
   -0.3000    1.8458    0.0000 C   0  0  0  0  0  0  0  0  0  0  0  0
    0.5000    0.4458    0.0000 C   0  0  0  0  0  0  0  0  0  0  0  0
   -5.0625    1.8458    0.0000 C   0  0  0  0  0  0  0  0  0  0  0  0
   -5.0625    0.9208    0.0000 C   0  0  0  0  0  0  0  0  0  0  0  0
    1.3167    1.8458    0.0000 C   0  0  0  0  0  0  0  0  0  0  0  0
    1.3542   -2.0042    0.0000 O   0  0  0  0  0  0  0  0  0  0  0  0
    1.3000    0.9208    0.0000 C   0  0  0  0  0  0  0  0  0  0  0  0
    0.5000    2.3000    0.0000 C   0  0  0  0  0  0  0  0  0  0  0  0
    2.1542    2.3000    0.0000 F   0  0  0  0  0  0  0  0  0  0  0  0
   -0.2625   -1.9667    0.0000 C   0  0  0  0  0  0  0  0  0  0  0  0
   -5.9083    2.3125    0.0000 O   0  0  0  0  0  0  0  0  0  0  0  0
    2.1792   -2.4875    0.0000 C   0  0  0  0  0  0  0  0  0  0  0  0
   -6.7292    1.8458    0.0000 C   0  0  0  0  0  0  0  0  0  0  0  0
    2.9875   -2.0167    0.0000 C   0  0  0  0  0  0  0  0  0  0  0  0
  2  1  1  0  0  0  0
  3  2  2  0  0  0  0
  4  5  1  0  0  0  0
  4  3  1  0  0  0  0
  5  1  1  0  0  0  0
  6  1  1  0  0  0  0
  7  6  2  0  0  0  0
  8  3  1  0  0  0  0
  9  8  2  0  0  0  0
 10  4  1  0  0  0  0
 11  7  1  0  0  0  0
 12  8  1  0  0  0  0
 13  5  1  0  0  0  0
 14 10  1  0  0  0  0
 14  9  1  0  0  0  0
 15  9  1  0  0  0  0
 16 11  2  0  0  0  0
 17 13  1  0  0  0  0
 18 13  2  0  0  0  0
 19 20  1  0  0  0  0
 19 15  2  0  0  0  0
 20 12  2  0  0  0  0
 21 23  2  0  0  0  0
 21 24  1  0  0  0  0
 22 11  1  0  0  0  0
 23 18  1  0  0  0  0
 24 17  2  0  0  0  0
 25 21  1  0  0  0  0
 26  6  1  0  0  0  0
 27 19  1  0  0  0  0
 28 22  1  0  0  0  0
 29 27  1  0  0  0  0
 30 28  1  0  0  0  0
M  END
>  <ID>
5210226

>  <Supplier>
ChemBridge

>  <clogP>
6.230000000000000e+000

>  <RB>
3

>  <tPSA>
5.113000000000000e+001

>  <Hacc>
4

>  <Hdon>
0

>  <LogSw>
-7.498000000000000e+000

>  <Group>
1

>  <Core>
196

$$$$
5210221
 OpenBabel03312015312D

 23 25  0  0  0  0  0  0  0  0999 V2000
    3.4000    0.8833    0.0000 N   0  3  0  0  0  0  0  0  0  0  0  0
   -0.6458   -0.6042    0.0000 C   0  0  0  0  0  0  0  0  0  0  0  0
   -1.4625   -1.0667    0.0000 C   0  0  0  0  0  0  0  0  0  0  0  0
   -2.2833   -0.6042    0.0000 C   0  0  0  0  0  0  0  0  0  0  0  0
   -2.2833    0.3500    0.0000 C   0  0  0  0  0  0  0  0  0  0  0  0
    0.1792   -1.0667    0.0000 C   0  0  0  0  0  0  0  0  0  0  0  0
    2.6000    0.3958    0.0000 C   0  0  0  0  0  0  0  0  0  0  0  0
   -3.0833   -1.0667    0.0000 C   0  0  0  0  0  0  0  0  0  0  0  0
    4.2792    0.5000    0.0000 O   0  5  0  0  0  0  0  0  0  0  0  0
    3.4375    1.8333    0.0000 O   0  0  0  0  0  0  0  0  0  0  0  0
   -0.6458    0.3500    0.0000 C   0  0  0  0  0  0  0  0  0  0  0  0
   -1.4625   -2.0042    0.0000 O   0  0  0  0  0  0  0  0  0  0  0  0
   -3.0833    0.8125    0.0000 C   0  0  0  0  0  0  0  0  0  0  0  0
   -1.4625    0.8125    0.0000 C   0  0  0  0  0  0  0  0  0  0  0  0
    0.9792   -0.5875    0.0000 C   0  0  0  0  0  0  0  0  0  0  0  0
    2.6292   -0.5542    0.0000 C   0  0  0  0  0  0  0  0  0  0  0  0
    1.7667    0.8500    0.0000 C   0  0  0  0  0  0  0  0  0  0  0  0
   -3.9000    0.3500    0.0000 C   0  0  0  0  0  0  0  0  0  0  0  0
   -3.9000   -0.6042    0.0000 C   0  0  0  0  0  0  0  0  0  0  0  0
    1.8042   -1.0375    0.0000 C   0  0  0  0  0  0  0  0  0  0  0  0
    0.9667    0.3500    0.0000 C   0  0  0  0  0  0  0  0  0  0  0  0
   -4.7208    0.8458    0.0000 O   0  0  0  0  0  0  0  0  0  0  0  0
   -5.5500    0.3958    0.0000 C   0  0  0  0  0  0  0  0  0  0  0  0
  2  6  2  0  0  0  0
  3  2  1  0  0  0  0
  4  3  1  0  0  0  0
  5 14  1  0  0  0  0
  5  4  2  0  0  0  0
  6 15  1  0  0  0  0
  7  1  1  0  0  0  0
  8  4  1  0  0  0  0
  9  1  1  0  0  0  0
 10  1  2  0  0  0  0
 11  2  1  0  0  0  0
 12  3  2  0  0  0  0
 13  5  1  0  0  0  0
 14 11  1  0  0  0  0
 15 21  2  0  0  0  0
 15 20  1  0  0  0  0
 16  7  1  0  0  0  0
 17  7  2  0  0  0  0
 18 13  2  0  0  0  0
 18 19  1  0  0  0  0
 19  8  2  0  0  0  0
 20 16  2  0  0  0  0
 21 17  1  0  0  0  0
 22 18  1  0  0  0  0
 23 22  1  0  0  0  0
M  CHG  2   1   1   9  -1
M  END
>  <ID>
5210221

>  <Supplier>
ChemBridge

>  <clogP>
3.580000000000000e+000

>  <RB>
1

>  <tPSA>
6.944000000000000e+001

>  <Hacc>
4

>  <Hdon>
0

>  <LogSw>
-4.903000000000001e+000

>  <Group>
1

$$$$
5210223
 OpenBabel03312015312D

 23 25  0  0  0  0  0  0  0  0999 V2000
    1.7500    1.7958    0.0000 N   0  3  0  0  0  0  0  0  0  0  0  0
   -1.4625   -1.0667    0.0000 C   0  0  0  0  0  0  0  0  0  0  0  0
   -0.6458   -0.6042    0.0000 C   0  0  0  0  0  0  0  0  0  0  0  0
   -2.2833   -0.6042    0.0000 C   0  0  0  0  0  0  0  0  0  0  0  0
    0.1792   -1.0667    0.0000 C   0  0  0  0  0  0  0  0  0  0  0  0
    1.7667    0.8500    0.0000 C   0  0  0  0  0  0  0  0  0  0  0  0
   -2.2833    0.3500    0.0000 C   0  0  0  0  0  0  0  0  0  0  0  0
    2.5042    2.3625    0.0000 O   0  5  0  0  0  0  0  0  0  0  0  0
    0.9542    2.2958    0.0000 O   0  0  0  0  0  0  0  0  0  0  0  0
   -3.0833   -1.0667    0.0000 C   0  0  0  0  0  0  0  0  0  0  0  0
   -0.6458    0.3500    0.0000 C   0  0  0  0  0  0  0  0  0  0  0  0
    0.9792   -0.5875    0.0000 C   0  0  0  0  0  0  0  0  0  0  0  0
   -1.4625   -2.0042    0.0000 O   0  0  0  0  0  0  0  0  0  0  0  0
    0.9667    0.3500    0.0000 C   0  0  0  0  0  0  0  0  0  0  0  0
   -1.4625    0.8125    0.0000 C   0  0  0  0  0  0  0  0  0  0  0  0
   -3.0833    0.8125    0.0000 C   0  0  0  0  0  0  0  0  0  0  0  0
   -3.9000   -0.6042    0.0000 C   0  0  0  0  0  0  0  0  0  0  0  0
   -3.9000    0.3500    0.0000 C   0  0  0  0  0  0  0  0  0  0  0  0
   -4.7208   -1.0792    0.0000 O   0  0  0  0  0  0  0  0  0  0  0  0
    2.6000    0.3958    0.0000 C   0  0  0  0  0  0  0  0  0  0  0  0
    2.6292   -0.5542    0.0000 C   0  0  0  0  0  0  0  0  0  0  0  0
    1.8042   -1.0375    0.0000 C   0  0  0  0  0  0  0  0  0  0  0  0
   -4.7208   -2.0042    0.0000 C   0  0  0  0  0  0  0  0  0  0  0  0
  2  3  1  0  0  0  0
  3  5  2  0  0  0  0
  4  2  1  0  0  0  0
  4  7  2  0  0  0  0
  5 12  1  0  0  0  0
  6  1  1  0  0  0  0
  7 15  1  0  0  0  0
  8  1  1  0  0  0  0
  9  1  2  0  0  0  0
 10  4  1  0  0  0  0
 11  3  1  0  0  0  0
 12 14  2  0  0  0  0
 13  2  2  0  0  0  0
 14  6  1  0  0  0  0
 15 11  1  0  0  0  0
 16  7  1  0  0  0  0
 17 10  2  0  0  0  0
 18 16  2  0  0  0  0
 18 17  1  0  0  0  0
 19 17  1  0  0  0  0
 20  6  2  0  0  0  0
 21 20  1  0  0  0  0
 22 21  2  0  0  0  0
 22 12  1  0  0  0  0
 23 19  1  0  0  0  0
M  CHG  2   1   1   8  -1
M  END
>  <ID>
5210223

>  <Supplier>
ChemBridge

>  <clogP>
3.580000000000000e+000

>  <RB>
1

>  <tPSA>
6.944000000000000e+001

>  <Hacc>
4

>  <Hdon>
0

>  <LogSw>
-4.903000000000001e+000

>  <Group>
2

$$$$
7659537
 OpenBabel03312015312D

 16 16  0  0  0  0  0  0  0  0999 V2000
    6.2667   -3.2667    0.0000 S   0  0  0  0  0  0  0  0  0  0  0  0
    5.5417   -2.8500    0.0000 C   0  0  0  0  0  0  0  0  0  0  0  0
    4.8375   -3.2542    0.0000 C   0  0  0  0  0  0  0  0  0  0  0  0
    5.5417   -2.0250    0.0000 C   0  0  0  0  0  0  0  0  0  0  0  0
    4.1250   -2.8500    0.0000 C   0  0  0  0  0  0  0  0  0  0  0  0
    4.8375   -1.6125    0.0000 C   0  0  0  0  0  0  0  0  0  0  0  0
    4.1250   -2.0250    0.0000 C   0  0  0  0  0  0  0  0  0  0  0  0
    6.9792   -3.6792    0.0000 O   0  5  0  0  0  0  0  0  0  0  0  0
    6.6792   -2.5500    0.0000 O   0  0  0  0  0  0  0  0  0  0  0  0
    5.8417   -3.9792    0.0000 O   0  0  0  0  0  0  0  0  0  0  0  0
    3.4042   -3.2667    0.0000 C   0  0  0  0  0  0  0  0  0  0  0  0
    6.2667   -1.6042    0.0000 C   0  0  0  0  0  0  0  0  0  0  0  0
    4.8375   -0.7917    0.0000 C   0  0  0  0  0  0  0  0  0  0  0  0
    3.8292   -3.9792    0.0000 C   0  0  0  0  0  0  0  0  0  0  0  0
    2.9917   -2.5500    0.0000 C   0  0  0  0  0  0  0  0  0  0  0  0
    2.6917   -3.6792    0.0000 C   0  0  0  0  0  0  0  0  0  0  0  0
  2  1  1  0  0  0  0
  3  2  2  0  0  0  0
  4  2  1  0  0  0  0
  5  3  1  0  0  0  0
  6  4  2  0  0  0  0
  7  6  1  0  0  0  0
  7  5  2  0  0  0  0
  8  1  1  0  0  0  0
  9  1  2  0  0  0  0
 10  1  2  0  0  0  0
 11  5  1  0  0  0  0
 12  4  1  0  0  0  0
 13  6  1  0  0  0  0
 14 11  1  0  0  0  0
 15 11  1  0  0  0  0
 16 11  1  0  0  0  0
M  CHG  1   8  -1
M  END
>  <ID>
7659537

>  <Supplier>
ChemBridge

>  <clogP>
2.944000000000000e+000

>  <RB>
4

>  <tPSA>
5.720000000000000e+001

>  <Hacc>
3

>  <Hdon>
1

>  <LogSw>
-3.482000000000000e+000

>  <Group>
2

$$$$
6650115
 OpenBabel03312015312D

 31 33  0  0  0  0  0  0  0  0999 V2000
    0.7000   -1.8667    0.0000 C   0  0  0  0  0  0  0  0  0  0  0  0
    0.4667   -1.4667    0.0000 C   0  0  0  0  0  0  0  0  0  0  0  0
    0.0500   -1.5667    0.0000 C   0  0  0  0  0  0  0  0  0  0  0  0
    1.1667   -1.9500    0.0000 N   0  0  0  0  0  0  0  0  0  0  0  0
    0.4042   -2.2042    0.0000 S   0  0  0  0  0  0  0  0  0  0  0  0
   -0.0125   -2.0500    0.0000 C   0  0  0  0  0  0  0  0  0  0  0  0
    1.4500   -1.5667    0.0000 C   0  0  0  0  0  0  0  0  0  0  0  0
    0.6500   -1.0500    0.0000 C   0  0  0  0  0  0  0  0  0  0  0  0
    1.9042   -1.6500    0.0000 C   0  0  0  0  0  0  0  0  0  0  0  0
    2.1875   -1.2667    0.0000 C   0  0  0  0  0  0  0  0  0  0  0  0
   -0.3125   -1.2667    0.0000 C   0  0  0  0  0  0  0  0  0  0  0  0
    2.6500   -1.3500    0.0000 C   0  0  0  0  0  0  0  0  0  0  0  0
    1.2667   -1.1500    0.0000 O   0  0  0  0  0  0  0  0  0  0  0  0
    2.8500   -1.7500    0.0000 C   0  0  0  0  0  0  0  0  0  0  0  0
    0.3667   -0.6500    0.0000 O   0  0  0  0  0  0  0  0  0  0  0  0
    2.1000   -2.0667    0.0000 C   0  0  0  0  0  0  0  0  0  0  0  0
    2.5500   -2.1500    0.0000 C   0  0  0  0  0  0  0  0  0  0  0  0
   -0.7708   -1.4500    0.0000 C   0  0  0  0  0  0  0  0  0  0  0  0
   -0.2333   -0.8042    0.0000 C   0  0  0  0  0  0  0  0  0  0  0  0
    1.1042   -0.9667    0.0000 O   0  0  0  0  0  0  0  0  0  0  0  0
   -1.0333   -0.7000    0.0000 C   0  0  0  0  0  0  0  0  0  0  0  0
    2.9667   -0.9500    0.0000 O   0  0  0  0  0  0  0  0  0  0  0  0
   -1.1333   -1.1500    0.0000 C   0  0  0  0  0  0  0  0  0  0  0  0
   -0.6125   -0.5042    0.0000 C   0  0  0  0  0  0  0  0  0  0  0  0
    3.3042   -1.8000    0.0000 O   0  0  0  0  0  0  0  0  0  0  0  0
   -1.4125   -0.3667    0.0000 O   0  0  0  0  0  0  0  0  0  0  0  0
    1.3000   -0.5500    0.0000 C   0  0  0  0  0  0  0  0  0  0  0  0
    3.4500   -1.0500    0.0000 C   0  0  0  0  0  0  0  0  0  0  0  0
    3.5667   -1.4042    0.0000 C   0  0  0  0  0  0  0  0  0  0  0  0
   -1.8500   -0.5500    0.0000 C   0  0  0  0  0  0  0  0  0  0  0  0
    1.7500   -0.4667    0.0000 C   0  0  0  0  0  0  0  0  0  0  0  0
  2  1  2  0  0  0  0
  3  2  1  0  0  0  0
  3  6  2  0  0  0  0
  4  1  1  0  0  0  0
  5  1  1  0  0  0  0
  6  5  1  0  0  0  0
  7  4  1  0  0  0  0
  8  2  1  0  0  0  0
  9  7  1  0  0  0  0
 10  9  1  0  0  0  0
 11  3  1  0  0  0  0
 12 10  2  0  0  0  0
 13  7  2  0  0  0  0
 14 17  2  0  0  0  0
 14 12  1  0  0  0  0
 15  8  2  0  0  0  0
 16  9  2  0  0  0  0
 17 16  1  0  0  0  0
 18 11  1  0  0  0  0
 19 11  2  0  0  0  0
 20  8  1  0  0  0  0
 21 24  2  0  0  0  0
 21 23  1  0  0  0  0
 22 12  1  0  0  0  0
 23 18  2  0  0  0  0
 24 19  1  0  0  0  0
 25 14  1  0  0  0  0
 26 21  1  0  0  0  0
 27 20  1  0  0  0  0
 28 22  1  0  0  0  0
 29 25  1  0  0  0  0
 30 26  1  0  0  0  0
 31 27  1  0  0  0  0
M  END
>  <ID>
6650115

>  <Supplier>
ChemBridge

>  <clogP>
3.980000000000000e+000

>  <RB>
4

>  <tPSA>
8.309000000000000e+001

>  <Hacc>
6

>  <Hdon>
1

>  <LogSw>
-5.816999999999998e+000

>  <Group>
1

>  <Core>
098

$$$$
6650116
 OpenBabel03312015312D

 23 25  0  0  0  0  0  0  0  0999 V2000
   -1.7625    0.8625    0.0000 C   0  0  0  0  0  0  0  0  0  0  0  0
   -1.7625   -0.0167    0.0000 C   0  0  0  0  0  0  0  0  0  0  0  0
   -0.2625    0.8625    0.0000 N   0  0  0  0  0  0  0  0  0  0  0  0
   -0.2625   -0.0167    0.0000 C   0  0  0  0  0  0  0  0  0  0  0  0
   -1.0208   -0.4375    0.0000 N   0  0  0  0  0  0  0  0  0  0  0  0
   -1.0208    1.2833    0.0000 C   0  0  0  0  0  0  0  0  0  0  0  0
   -2.5625   -0.2792    0.0000 S   0  0  0  0  0  0  0  0  0  0  0  0
   -2.5625    1.1208    0.0000 C   0  0  0  0  0  0  0  0  0  0  0  0
   -3.0625    0.4208    0.0000 C   0  0  0  0  0  0  0  0  0  0  0  0
    0.5000   -0.4792    0.0000 S   0  0  0  0  0  0  0  0  0  0  0  0
    0.4792    1.3000    0.0000 C   0  0  0  0  0  0  0  0  0  0  0  0
   -1.0208    2.1458    0.0000 O   0  0  0  0  0  0  0  0  0  0  0  0
    2.0042   -0.5292    0.0000 C   0  0  0  0  0  0  0  0  0  0  0  0
    1.2542   -0.0667    0.0000 C   0  0  0  0  0  0  0  0  0  0  0  0
    2.7667   -0.1167    0.0000 C   0  0  0  0  0  0  0  0  0  0  0  0
   -2.8458    1.9458    0.0000 C   0  0  0  0  0  0  0  0  0  0  0  0
   -3.9208    0.4208    0.0000 C   0  0  0  0  0  0  0  0  0  0  0  0
    0.4792    2.1625    0.0000 C   0  0  0  0  0  0  0  0  0  0  0  0
    1.2167    0.8625    0.0000 C   0  0  0  0  0  0  0  0  0  0  0  0
    2.0042   -1.3875    0.0000 C   0  0  0  0  0  0  0  0  0  0  0  0
    1.2167    2.5833    0.0000 C   0  0  0  0  0  0  0  0  0  0  0  0
    1.9792    1.2833    0.0000 C   0  0  0  0  0  0  0  0  0  0  0  0
    1.9792    2.1500    0.0000 C   0  0  0  0  0  0  0  0  0  0  0  0
  2  1  2  0  0  0  0
  3  6  1  0  0  0  0
  4  3  1  0  0  0  0
  4  5  2  0  0  0  0
  5  2  1  0  0  0  0
  6  1  1  0  0  0  0
  7  2  1  0  0  0  0
  8  1  1  0  0  0  0
  9  8  2  0  0  0  0
  9  7  1  0  0  0  0
 10  4  1  0  0  0  0
 11  3  1  0  0  0  0
 12  6  2  0  0  0  0
 13 14  1  0  0  0  0
 14 10  1  0  0  0  0
 15 13  2  0  0  0  0
 16  8  1  0  0  0  0
 17  9  1  0  0  0  0
 18 11  1  0  0  0  0
 19 11  2  0  0  0  0
 20 13  1  0  0  0  0
 21 18  2  0  0  0  0
 22 19  1  0  0  0  0
 23 22  2  0  0  0  0
 23 21  1  0  0  0  0
M  END
>  <ID>
6650116

>  <Supplier>
ChemBridge

>  <clogP>
4.780000000000000e+000

>  <RB>
4

>  <tPSA>
3.489000000000000e+001

>  <Hacc>
2

>  <Hdon>
0

>  <LogSw>
-5.779000000000002e+000

>  <Group>
3

>  <Core>
041

$$$$
6650117
 OpenBabel03312015312D

 28 30  0  0  0  0  0  0  0  0999 V2000
    1.2542   -1.6792    0.0000 S   0  0  0  0  0  0  0  0  0  0  0  0
   -1.2833    1.6625    0.0000 S   0  0  0  0  0  0  0  0  0  0  0  0
    0.4042   -1.1875    0.0000 C   0  0  0  0  0  0  0  0  0  0  0  0
   -0.4333    1.1958    0.0000 N   0  0  0  0  0  0  0  0  0  0  0  0
   -0.4333    0.2208    0.0000 C   0  0  0  0  0  0  0  0  0  0  0  0
    2.0875   -2.1542    0.0000 N   0  0  0  0  0  0  0  0  0  0  0  0
    0.4042   -0.2500    0.0000 C   0  0  0  0  0  0  0  0  0  0  0  0
   -0.4333   -1.6542    0.0000 C   0  0  0  0  0  0  0  0  0  0  0  0
   -1.2625   -0.2500    0.0000 C   0  0  0  0  0  0  0  0  0  0  0  0
    0.7875   -2.5042    0.0000 O   0  0  0  0  0  0  0  0  0  0  0  0
    1.7292   -0.8375    0.0000 O   0  0  0  0  0  0  0  0  0  0  0  0
   -1.7500    0.8125    0.0000 O   0  0  0  0  0  0  0  0  0  0  0  0
   -0.8125    2.4958    0.0000 O   0  0  0  0  0  0  0  0  0  0  0  0
   -1.2625   -1.1875    0.0000 C   0  0  0  0  0  0  0  0  0  0  0  0
   -2.1333    2.1333    0.0000 C   0  0  0  0  0  0  0  0  0  0  0  0
    3.7542   -3.0792    0.0000 O   0  0  0  0  0  0  0  0  0  0  0  0
    2.9042   -1.6542    0.0000 C   0  0  0  0  0  0  0  0  0  0  0  0
    2.1042   -3.1000    0.0000 C   0  0  0  0  0  0  0  0  0  0  0  0
    0.3875    1.6625    0.0000 C   0  0  0  0  0  0  0  0  0  0  0  0
   -0.4333   -2.6292    0.0000 C   0  0  0  0  0  0  0  0  0  0  0  0
   -2.1125    0.2500    0.0000 C   0  0  0  0  0  0  0  0  0  0  0  0
    3.7375   -2.1292    0.0000 C   0  0  0  0  0  0  0  0  0  0  0  0
    2.9375   -3.5667    0.0000 C   0  0  0  0  0  0  0  0  0  0  0  0
   -2.1333    3.1083    0.0000 C   0  0  0  0  0  0  0  0  0  0  0  0
   -2.9625    1.6625    0.0000 C   0  0  0  0  0  0  0  0  0  0  0  0
   -3.7833    2.1625    0.0000 C   0  0  0  0  0  0  0  0  0  0  0  0
   -2.9625    3.5708    0.0000 C   0  0  0  0  0  0  0  0  0  0  0  0
   -3.7833    3.1083    0.0000 C   0  0  0  0  0  0  0  0  0  0  0  0
  2  4  1  0  0  0  0
  3  1  1  0  0  0  0
  4  5  1  0  0  0  0
  5  7  1  0  0  0  0
  5  9  2  0  0  0  0
  6  1  1  0  0  0  0
  7  3  2  0  0  0  0
  8  3  1  0  0  0  0
  9 14  1  0  0  0  0
 10  1  2  0  0  0  0
 11  1  2  0  0  0  0
 12  2  2  0  0  0  0
 13  2  2  0  0  0  0
 14  8  2  0  0  0  0
 15  2  1  0  0  0  0
 16 23  1  0  0  0  0
 16 22  1  0  0  0  0
 17  6  1  0  0  0  0
 18  6  1  0  0  0  0
 19  4  1  0  0  0  0
 20  8  1  0  0  0  0
 21  9  1  0  0  0  0
 22 17  1  0  0  0  0
 23 18  1  0  0  0  0
 24 15  2  0  0  0  0
 25 15  1  0  0  0  0
 26 25  2  0  0  0  0
 27 24  1  0  0  0  0
 27 28  2  0  0  0  0
 28 26  1  0  0  0  0
M  END
>  <ID>
6650117

>  <Supplier>
ChemBridge

>  <clogP>
2.840000000000000e+000

>  <RB>
3

>  <tPSA>
8.399000000000002e+001

>  <Hacc>
6

>  <Hdon>
0

>  <LogSw>
-4.720000000000000e+000

>  <Group>
2

>  <Core>
516

$$$$
5362700
 OpenBabel03312015312D

 21 23  0  0  0  0  0  0  0  0999 V2000
    0.1667   -0.3375    0.0000 N   0  0  0  0  0  0  0  0  0  0  0  0
   -1.2958   -0.3375    0.0000 N   0  0  0  0  0  0  0  0  0  0  0  0
    0.1667    0.4708    0.0000 C   0  0  0  0  0  0  0  0  0  0  0  0
    3.5292   -0.3375    0.0000 N   0  3  0  0  0  0  0  0  0  0  0  0
   -1.2958    0.4708    0.0000 C   0  0  0  0  0  0  0  0  0  0  0  0
   -0.5625    0.9708    0.0000 C   0  0  0  0  0  0  0  0  0  0  0  0
    1.0042   -0.8000    0.0000 C   0  0  0  0  0  0  0  0  0  0  0  0
    1.8500   -0.3042    0.0000 C   0  0  0  0  0  0  0  0  0  0  0  0
    2.7000   -0.8000    0.0000 C   0  0  0  0  0  0  0  0  0  0  0  0
    4.4000   -0.7542    0.0000 O   0  5  0  0  0  0  0  0  0  0  0  0
    3.6042    0.6125    0.0000 O   0  0  0  0  0  0  0  0  0  0  0  0
    0.7875    0.9000    0.0000 O   0  0  0  0  0  0  0  0  0  0  0  0
   -2.1708    0.8458    0.0000 C   0  0  0  0  0  0  0  0  0  0  0  0
    1.0167   -1.7542    0.0000 C   0  0  0  0  0  0  0  0  0  0  0  0
    2.7000   -1.7542    0.0000 C   0  0  0  0  0  0  0  0  0  0  0  0
    1.8667   -2.2500    0.0000 C   0  0  0  0  0  0  0  0  0  0  0  0
   -2.2833    1.8000    0.0000 C   0  0  0  0  0  0  0  0  0  0  0  0
   -2.9500    0.2708    0.0000 C   0  0  0  0  0  0  0  0  0  0  0  0
   -3.1708    2.1958    0.0000 C   0  0  0  0  0  0  0  0  0  0  0  0
   -3.8500    0.6625    0.0000 C   0  0  0  0  0  0  0  0  0  0  0  0
   -3.9583    1.6125    0.0000 C   0  0  0  0  0  0  0  0  0  0  0  0
  2  1  1  0  0  0  0
  3  1  1  0  0  0  0
  4  9  1  0  0  0  0
  5  2  2  0  0  0  0
  5  6  1  0  0  0  0
  6  3  1  0  0  0  0
  7  1  1  0  0  0  0
  8  7  1  0  0  0  0
  9  8  2  0  0  0  0
 10  4  1  0  0  0  0
 11  4  2  0  0  0  0
 12  3  2  0  0  0  0
 13  5  1  0  0  0  0
 14  7  2  0  0  0  0
 15 16  2  0  0  0  0
 15  9  1  0  0  0  0
 16 14  1  0  0  0  0
 17 13  2  0  0  0  0
 18 13  1  0  0  0  0
 19 17  1  0  0  0  0
 19 21  2  0  0  0  0
 20 18  2  0  0  0  0
 21 20  1  0  0  0  0
M  CHG  2   4   1  10  -1
M  END
>  <ID>
5362700

>  <Supplier>
ChemBridge

>  <clogP>
4.040000000000000e+000

>  <RB>
2

>  <tPSA>
7.581000000000000e+001

>  <Hacc>
4

>  <Hdon>
0

>  <LogSw>
-5.092000000000000e+000

>  <Group>
3

>  <Core>
198

$$$$
5362701
 OpenBabel03312015312D

 19 20  0  0  0  0  0  0  0  0999 V2000
    2.4042   -0.2792    0.0000 N   0  0  0  0  0  0  0  0  0  0  0  0
    1.4667    0.2625    0.0000 C   0  0  0  0  0  0  0  0  0  0  0  0
   -0.4125    0.2833    0.0000 C   0  0  0  0  0  0  0  0  0  0  0  0
    0.5292   -0.2792    0.0000 C   0  0  0  0  0  0  0  0  0  0  0  0
    3.3500    0.2625    0.0000 C   0  0  0  0  0  0  0  0  0  0  0  0
   -1.3708   -0.2792    0.0000 C   0  0  0  0  0  0  0  0  0  0  0  0
    1.4667    1.3125    0.0000 O   0  0  0  0  0  0  0  0  0  0  0  0
   -2.3125    0.2625    0.0000 C   0  0  0  0  0  0  0  0  0  0  0  0
    3.3500    1.3458    0.0000 C   0  0  0  0  0  0  0  0  0  0  0  0
   -2.3208    1.3333    0.0000 Cl  0  0  0  0  0  0  0  0  0  0  0  0
    4.2667   -0.2792    0.0000 C   0  0  0  0  0  0  0  0  0  0  0  0
   -1.3708   -1.3542    0.0000 C   0  0  0  0  0  0  0  0  0  0  0  0
    2.4042    1.9000    0.0000 C   0  0  0  0  0  0  0  0  0  0  0  0
   -3.2333   -0.2792    0.0000 C   0  0  0  0  0  0  0  0  0  0  0  0
    4.2875    1.8833    0.0000 C   0  0  0  0  0  0  0  0  0  0  0  0
    5.2042    0.2625    0.0000 C   0  0  0  0  0  0  0  0  0  0  0  0
   -2.3125   -1.9000    0.0000 C   0  0  0  0  0  0  0  0  0  0  0  0
    5.2292    1.3458    0.0000 C   0  0  0  0  0  0  0  0  0  0  0  0
   -3.2333   -1.3542    0.0000 C   0  0  0  0  0  0  0  0  0  0  0  0
  2  1  1  0  0  0  0
  3  4  2  0  0  0  0
  4  2  1  0  0  0  0
  5  1  1  0  0  0  0
  6  3  1  0  0  0  0
  7  2  2  0  0  0  0
  8  6  2  0  0  0  0
  9  5  2  0  0  0  0
 10  8  1  0  0  0  0
 11  5  1  0  0  0  0
 12  6  1  0  0  0  0
 13  9  1  0  0  0  0
 14  8  1  0  0  0  0
 14 19  2  0  0  0  0
 15  9  1  0  0  0  0
 15 18  2  0  0  0  0
 16 11  2  0  0  0  0
 17 12  2  0  0  0  0
 18 16  1  0  0  0  0
 19 17  1  0  0  0  0
M  END
>  <ID>
5362701

>  <Supplier>
ChemBridge

>  <clogP>
4.220000000000000e+000

>  <RB>
3

>  <tPSA>
2.910000000000000e+001

>  <Hacc>
1

>  <Hdon>
1

>  <LogSw>
-4.786000000000001e+000

>  <Group>
1

>  <Core>
435

$$$$
7501590
 OpenBabel03312015312D

 22 23  0  0  0  0  0  0  0  0999 V2000
    2.4167   -0.2500    0.0000 C   0  0  0  0  0  0  0  0  0  0  0  0
    3.0667   -0.6250    0.0000 N   0  0  0  0  0  0  0  0  0  0  0  0
    3.7167   -0.2500    0.0000 C   0  0  0  0  0  0  0  0  0  0  0  0
    5.0167   -0.2500    0.0000 C   0  0  0  0  0  0  0  0  0  0  0  0
    1.7667   -0.6250    0.0000 C   0  0  0  0  0  0  0  0  0  0  0  0
    4.3667   -0.6250    0.0000 N   0  0  0  0  0  0  0  0  0  0  0  0
    5.6667   -0.6250    0.0000 C   0  0  0  0  0  0  0  0  0  0  0  0
    5.0167    0.5083    0.0000 C   0  0  0  0  0  0  0  0  0  0  0  0
    5.6667    0.8833    0.0000 C   0  0  0  0  0  0  0  0  0  0  0  0
    6.3167   -0.2500    0.0000 C   0  0  0  0  0  0  0  0  0  0  0  0
    3.7167    0.5000    0.0000 S   0  0  0  0  0  0  0  0  0  0  0  0
    6.3167    0.5083    0.0000 C   0  0  0  0  0  0  0  0  0  0  0  0
    1.1167   -0.2500    0.0000 C   0  0  0  0  0  0  0  0  0  0  0  0
    2.4167    0.5000    0.0000 O   0  0  0  0  0  0  0  0  0  0  0  0
    4.3667    0.8833    0.0000 Cl  0  0  0  0  0  0  0  0  0  0  0  0
    5.6667   -1.3750    0.0000 Cl  0  0  0  0  0  0  0  0  0  0  0  0
    1.1167    0.5000    0.0000 F   0  0  0  0  0  0  0  0  0  0  0  0
    6.9667    0.8833    0.0000 Cl  0  0  0  0  0  0  0  0  0  0  0  0
    1.7667   -1.3750    0.0000 C   0  0  0  0  0  0  0  0  0  0  0  0
    0.4667   -0.6250    0.0000 C   0  0  0  0  0  0  0  0  0  0  0  0
    1.1167   -1.7500    0.0000 C   0  0  0  0  0  0  0  0  0  0  0  0
    0.4667   -1.3750    0.0000 C   0  0  0  0  0  0  0  0  0  0  0  0
  2  1  1  0  0  0  0
  3  2  1  0  0  0  0
  4  6  1  0  0  0  0
  5  1  1  0  0  0  0
  6  3  1  0  0  0  0
  7  4  2  0  0  0  0
  8  4  1  0  0  0  0
  9  8  2  0  0  0  0
 10  7  1  0  0  0  0
 10 12  2  0  0  0  0
 11  3  2  0  0  0  0
 12  9  1  0  0  0  0
 13  5  1  0  0  0  0
 14  1  2  0  0  0  0
 15  8  1  0  0  0  0
 16  7  1  0  0  0  0
 17 13  1  0  0  0  0
 18 12  1  0  0  0  0
 19  5  2  0  0  0  0
 20 13  2  0  0  0  0
 20 22  1  0  0  0  0
 21 19  1  0  0  0  0
 22 21  2  0  0  0  0
M  END
>  <ID>
7501590

>  <Supplier>
ChemBridge

>  <clogP>
3.766000000000000e+000

>  <RB>
2

>  <tPSA>
4.113000000000000e+001

>  <Hacc>
1

>  <Hdon>
2

>  <LogSw>
-6.738000000000000e+000

>  <Group>
1

>  <Core>
071

$$$$
6650113
 OpenBabel03312015312D

 24 26  0  0  0  0  0  0  0  0999 V2000
    1.4167   -0.3750    0.0000 S   0  0  0  0  0  0  0  0  0  0  0  0
    4.9875   -1.5917    0.0000 N   0  0  0  0  0  0  0  0  0  0  0  0
    5.7042   -2.0125    0.0000 C   0  0  0  0  0  0  0  0  0  0  0  0
    5.7000   -2.8375    0.0000 N   0  0  0  0  0  0  0  0  0  0  0  0
    4.2792   -2.0125    0.0000 C   0  0  0  0  0  0  0  0  0  0  0  0
    4.2792   -2.8375    0.0000 C   0  0  0  0  0  0  0  0  0  0  0  0
    6.4167   -1.6000    0.0000 C   0  0  0  0  0  0  0  0  0  0  0  0
    2.1292   -0.7792    0.0000 C   0  0  0  0  0  0  0  0  0  0  0  0
    0.7042    0.0375    0.0000 N   0  0  0  0  0  0  0  0  0  0  0  0
    1.0042   -1.0917    0.0000 O   0  0  0  0  0  0  0  0  0  0  0  0
    1.8292    0.3375    0.0000 O   0  0  0  0  0  0  0  0  0  0  0  0
    6.4125   -3.2500    0.0000 C   0  0  0  0  0  0  0  0  0  0  0  0
    3.5667   -1.6000    0.0000 C   0  0  0  0  0  0  0  0  0  0  0  0
    7.1292   -2.8417    0.0000 C   0  0  0  0  0  0  0  0  0  0  0  0
    7.1292   -2.0167    0.0000 C   0  0  0  0  0  0  0  0  0  0  0  0
    2.8500   -0.3667    0.0000 C   0  0  0  0  0  0  0  0  0  0  0  0
    2.1417   -1.6125    0.0000 C   0  0  0  0  0  0  0  0  0  0  0  0
    3.5667   -0.7792    0.0000 C   0  0  0  0  0  0  0  0  0  0  0  0
    2.8542   -2.0167    0.0000 C   0  0  0  0  0  0  0  0  0  0  0  0
    6.4167   -0.7750    0.0000 C   0  0  0  0  0  0  0  0  0  0  0  0
   -0.0125   -0.3667    0.0000 C   0  0  0  0  0  0  0  0  0  0  0  0
    0.7042    0.8625    0.0000 C   0  0  0  0  0  0  0  0  0  0  0  0
   -0.0125    1.2833    0.0000 C   0  0  0  0  0  0  0  0  0  0  0  0
   -0.7250    0.0458    0.0000 C   0  0  0  0  0  0  0  0  0  0  0  0
  2  5  1  0  0  0  0
  3  2  2  0  0  0  0
  4  6  1  0  0  0  0
  4  3  1  0  0  0  0
  5 13  1  0  0  0  0
  6  5  2  0  0  0  0
  7  3  1  0  0  0  0
  8  1  1  0  0  0  0
  9  1  1  0  0  0  0
 10  1  2  0  0  0  0
 11  1  2  0  0  0  0
 12  4  1  0  0  0  0
 13 19  1  0  0  0  0
 14 12  2  0  0  0  0
 15  7  2  0  0  0  0
 15 14  1  0  0  0  0
 16  8  2  0  0  0  0
 17  8  1  0  0  0  0
 18 16  1  0  0  0  0
 18 13  2  0  0  0  0
 19 17  2  0  0  0  0
 20  7  1  0  0  0  0
 21  9  1  0  0  0  0
 22  9  1  0  0  0  0
 23 22  1  0  0  0  0
 24 21  1  0  0  0  0
M  END
>  <ID>
6650113

>  <Supplier>
ChemBridge

>  <clogP>
4.050000000000000e+000

>  <RB>
2

>  <tPSA>
5.468000000000000e+001

>  <Hacc>
5

>  <Hdon>
0

>  <LogSw>
-5.162999999999998e+000

>  <Group>
3

$$$$
5650415
 OpenBabel03312015312D

 25 27  0  0  0  0  0  0  0  0999 V2000
    2.3542   -1.8000    0.0000 C   0  0  0  0  0  0  0  0  0  0  0  0
    1.7042   -1.4292    0.0000 N   0  3  0  0  0  0  0  0  0  0  0  0
    6.3375   -2.5500    0.0000 N   0  0  0  0  0  0  0  0  0  0  0  0
    6.2542   -1.8042    0.0000 C   0  0  0  0  0  0  0  0  0  0  0  0
    2.3542   -2.5542    0.0000 C   0  0  0  0  0  0  0  0  0  0  0  0
    1.7042   -2.9292    0.0000 N   0  0  0  0  0  0  0  0  0  0  0  0
    7.0667   -2.7042    0.0000 C   0  0  0  0  0  0  0  0  0  0  0  0
    6.9500   -1.5000    0.0000 S   0  0  0  0  0  0  0  0  0  0  0  0
    5.6042   -1.4292    0.0000 N   0  0  0  0  0  0  0  0  0  0  0  0
    4.9542   -1.8000    0.0000 N   0  0  0  0  0  0  0  0  0  0  0  0
    3.0042   -1.4167    0.0000 C   0  0  0  0  0  0  0  0  0  0  0  0
    3.0042   -2.9292    0.0000 C   0  0  0  0  0  0  0  0  0  0  0  0
    1.7042   -0.6792    0.0000 O   0  5  0  0  0  0  0  0  0  0  0  0
    1.0542   -1.8042    0.0000 O   0  0  0  0  0  0  0  0  0  0  0  0
    1.7042   -3.6792    0.0000 C   0  0  0  0  0  0  0  0  0  0  0  0
    1.0542   -2.5542    0.0000 C   0  0  0  0  0  0  0  0  0  0  0  0
    7.3792   -3.3875    0.0000 O   0  0  0  0  0  0  0  0  0  0  0  0
    7.4500   -2.0542    0.0000 C   0  0  0  0  0  0  0  0  0  0  0  0
    4.3042   -1.4292    0.0000 C   0  0  0  0  0  0  0  0  0  0  0  0
    3.6542   -1.8000    0.0000 C   0  0  0  0  0  0  0  0  0  0  0  0
    3.6542   -2.5542    0.0000 C   0  0  0  0  0  0  0  0  0  0  0  0
    1.0542   -4.0542    0.0000 C   0  0  0  0  0  0  0  0  0  0  0  0
    0.4042   -2.9292    0.0000 C   0  0  0  0  0  0  0  0  0  0  0  0
    0.4042   -3.6792    0.0000 C   0  0  3  0  0  0  0  0  0  0  0  0
   -0.2333   -4.0542    0.0000 C   0  0  0  0  0  0  0  0  0  0  0  0
  2  1  1  0  0  0  0
  3  4  1  0  0  0  0
  4  9  2  0  0  0  0
  5  1  1  0  0  0  0
  6  5  1  0  0  0  0
  7  3  1  0  0  0  0
  8  4  1  0  0  0  0
  9 10  1  0  0  0  0
 10 19  2  0  0  0  0
 11  1  2  0  0  0  0
 12  5  2  0  0  0  0
 13  2  1  0  0  0  0
 14  2  2  0  0  0  0
 15  6  1  0  0  0  0
 16  6  1  0  0  0  0
 17  7  2  0  0  0  0
 18  8  1  0  0  0  0
 18  7  1  0  0  0  0
 19 20  1  0  0  0  0
 20 11  1  0  0  0  0
 21 20  2  0  0  0  0
 21 12  1  0  0  0  0
 22 15  1  0  0  0  0
 22 24  1  0  0  0  0
 23 16  1  0  0  0  0
 24 23  1  0  0  0  0
 25 24  1  0  0  0  0
M  CHG  2   2   1  13  -1
M  END
>  <ID>
5650415

>  <Supplier>
ChemBridge

>  <clogP>
4.170000000000000e+000

>  <RB>
3

>  <tPSA>
1.002000000000000e+002

>  <Hacc>
5

>  <Hdon>
1

>  <LogSw>
-5.786000000000001e+000

>  <Group>
1

$$$$
9133437
 OpenBabel03312015312D

 23 25  0  0  0  0  0  0  0  0999 V2000
    2.1917    1.5958    0.0000 N   0  0  0  0  0  0  0  0  0  0  0  0
    2.1917    0.8458    0.0000 C   0  0  0  0  0  0  0  0  0  0  0  0
    2.8500    1.9708    0.0000 C   0  0  0  0  0  0  0  0  0  0  0  0
    3.5000    1.5958    0.0000 C   0  0  0  0  0  0  0  0  0  0  0  0
    1.4875    1.8250    0.0000 C   0  0  0  0  0  0  0  0  0  0  0  0
    1.4875    0.6125    0.0000 S   0  0  0  0  0  0  0  0  0  0  0  0
    2.8500    0.4708    0.0000 N   0  0  0  0  0  0  0  0  0  0  0  0
    1.0417    1.2208    0.0000 C   0  0  0  0  0  0  0  0  0  0  0  0
    3.5000    0.8458    0.0000 C   0  0  0  0  0  0  0  0  0  0  0  0
    4.1417    1.9708    0.0000 C   0  0  0  0  0  0  0  0  0  0  0  0
    2.8500    2.7208    0.0000 O   0  0  0  0  0  0  0  0  0  0  0  0
    4.1417    2.7208    0.0000 O   0  0  0  0  0  0  0  0  0  0  0  0
    6.7417    1.9708    0.0000 C   0  0  0  0  0  0  0  0  0  0  0  0
    4.7917    1.5958    0.0000 N   0  0  0  0  0  0  0  0  0  0  0  0
    7.3917    1.5958    0.0000 C   0  0  0  0  0  0  0  0  0  0  0  0
    1.2542    2.5458    0.0000 C   0  0  0  0  0  0  0  0  0  0  0  0
    0.2917    1.2208    0.0000 C   0  0  0  0  0  0  0  0  0  0  0  0
    5.4417    1.9708    0.0000 C   0  0  0  0  0  0  0  0  0  0  0  0
    6.0917    1.5958    0.0000 C   0  0  0  0  0  0  0  0  0  0  0  0
    6.7417    2.7208    0.0000 C   0  0  0  0  0  0  0  0  0  0  0  0
    8.0417    1.9708    0.0000 C   0  0  0  0  0  0  0  0  0  0  0  0
    7.3917    3.0958    0.0000 C   0  0  0  0  0  0  0  0  0  0  0  0
    8.0417    2.7208    0.0000 C   0  0  0  0  0  0  0  0  0  0  0  0
  2  1  1  0  0  0  0
  3  1  1  0  0  0  0
  4  3  1  0  0  0  0
  5  1  1  0  0  0  0
  6  2  1  0  0  0  0
  7  2  2  0  0  0  0
  7  9  1  0  0  0  0
  8  5  2  0  0  0  0
  8  6  1  0  0  0  0
  9  4  2  0  0  0  0
 10  4  1  0  0  0  0
 11  3  2  0  0  0  0
 12 10  2  0  0  0  0
 13 19  1  0  0  0  0
 14 10  1  0  0  0  0
 15 13  2  0  0  0  0
 16  5  1  0  0  0  0
 17  8  1  0  0  0  0
 18 14  1  0  0  0  0
 19 18  1  0  0  0  0
 20 13  1  0  0  0  0
 21 15  1  0  0  0  0
 21 23  1  0  0  0  0
 22 20  1  0  0  0  0
 23 22  1  0  0  0  0
M  END
>  <ID>
9133437

>  <Supplier>
ChemBridge

>  <clogP>
2.481000000000000e+000

>  <RB>
4

>  <tPSA>
6.347000000000000e+001

>  <Hacc>
3

>  <Hdon>
1

>  <LogSw>
-3.736000000000000e+000

>  <Group>
2

>  <Core>
127

$$$$
7102894
 OpenBabel03312015312D

 30 33  0  0  0  0  0  0  0  0999 V2000
    8.5875   -1.4000    0.0000 N   0  0  0  0  0  0  0  0  0  0  0  0
    8.3292   -2.1875    0.0000 C   0  0  0  0  0  0  0  0  0  0  0  0
    7.9167   -0.9167    0.0000 C   0  0  0  0  0  0  0  0  0  0  0  0
    7.2542   -1.4000    0.0000 C   0  0  0  0  0  0  0  0  0  0  0  0
    7.5042   -2.1875    0.0000 S   0  0  0  0  0  0  0  0  0  0  0  0
    2.9667   -2.2292    0.0000 C   0  0  0  0  0  0  0  0  0  0  0  0
    6.5417   -0.9875    0.0000 C   0  0  0  0  0  0  0  0  0  0  0  0
    2.2542   -2.6417    0.0000 C   0  0  0  0  0  0  0  0  0  0  0  0
    9.3750   -1.1417    0.0000 C   0  0  0  0  0  0  0  0  0  0  0  0
    8.8167   -2.8542    0.0000 S   0  0  0  0  0  0  0  0  0  0  0  0
    3.6792   -2.6417    0.0000 O   0  0  0  0  0  0  0  0  0  0  0  0
    2.1667   -3.4667    0.0000 O   0  0  0  0  0  0  0  0  0  0  0  0
    7.9167   -0.0917    0.0000 O   0  0  0  0  0  0  0  0  0  0  0  0
    1.5042   -2.3125    0.0000 C   0  0  0  0  0  0  0  0  0  0  0  0
    2.9667   -1.4042    0.0000 O   0  0  0  0  0  0  0  0  0  0  0  0
    1.3667   -3.6375    0.0000 C   0  0  0  0  0  0  0  0  0  0  0  0
    0.9542   -2.9250    0.0000 C   0  0  0  0  0  0  0  0  0  0  0  0
    5.8292   -1.4042    0.0000 C   0  0  0  0  0  0  0  0  0  0  0  0
    4.4000   -2.2292    0.0000 C   0  0  0  0  0  0  0  0  0  0  0  0
    9.9792   -1.7000    0.0000 C   0  0  0  0  0  0  0  0  0  0  0  0
   11.2042   -2.8042    0.0000 C   0  0  0  0  0  0  0  0  0  0  0  0
    5.1125   -0.9917    0.0000 C   0  0  0  0  0  0  0  0  0  0  0  0
    5.8292   -2.2292    0.0000 C   0  0  0  0  0  0  0  0  0  0  0  0
    4.4000   -1.4042    0.0000 C   0  0  0  0  0  0  0  0  0  0  0  0
    5.1125   -2.6417    0.0000 C   0  0  0  0  0  0  0  0  0  0  0  0
   10.7667   -1.4417    0.0000 C   0  0  0  0  0  0  0  0  0  0  0  0
    9.8042   -2.5042    0.0000 C   0  0  0  0  0  0  0  0  0  0  0  0
   10.4167   -3.0542    0.0000 C   0  0  0  0  0  0  0  0  0  0  0  0
   11.3792   -1.9917    0.0000 C   0  0  0  0  0  0  0  0  0  0  0  0
   11.8167   -3.3542    0.0000 C   0  0  0  0  0  0  0  0  0  0  0  0
  2  1  1  0  0  0  0
  3  1  1  0  0  0  0
  4  3  1  0  0  0  0
  5  2  1  0  0  0  0
  5  4  1  0  0  0  0
  6 11  1  0  0  0  0
  7  4  2  0  0  0  0
  8  6  1  0  0  0  0
  9  1  1  0  0  0  0
 10  2  2  0  0  0  0
 11 19  1  0  0  0  0
 12  8  1  0  0  0  0
 13  3  2  0  0  0  0
 14  8  2  0  0  0  0
 15  6  2  0  0  0  0
 16 12  1  0  0  0  0
 16 17  2  0  0  0  0
 17 14  1  0  0  0  0
 18  7  1  0  0  0  0
 19 25  1  0  0  0  0
 19 24  2  0  0  0  0
 20  9  1  0  0  0  0
 21 28  2  0  0  0  0
 21 29  1  0  0  0  0
 22 18  2  0  0  0  0
 23 18  1  0  0  0  0
 24 22  1  0  0  0  0
 25 23  2  0  0  0  0
 26 20  1  0  0  0  0
 27 20  2  0  0  0  0
 28 27  1  0  0  0  0
 29 26  2  0  0  0  0
 30 21  1  0  0  0  0
M  END
>  <ID>
7102894

>  <Supplier>
ChemBridge

>  <clogP>
5.050000000000000e+000

>  <RB>
6

>  <tPSA>
5.975000000000001e+001

>  <Hacc>
4

>  <Hdon>
0

>  <LogSw>
-6.686999999999999e+000

>  <Group>
1

>  <Core>
001

$$$$
5615734
 OpenBabel03312015312D

 29 31  0  0  0  0  0  0  0  0999 V2000
   -1.4125    1.9000    0.0000 C   0  0  0  0  0  0  0  0  0  0  0  0
   -2.0500    2.9833    0.0000 C   0  0  3  0  0  0  0  0  0  0  0  0
   -2.0500    0.8125    0.0000 C   0  0  0  0  0  0  0  0  0  0  0  0
   -2.0208    7.3167    0.0000 N   0  3  0  0  0  0  0  0  0  0  0  0
   -1.4125    6.2375    0.0000 C   0  0  0  0  0  0  0  0  0  0  0  0
   -3.9458    1.9000    0.0000 C   0  0  0  0  0  0  0  0  0  0  0  0
   -3.3333    0.8125    0.0000 N   0  0  0  0  0  0  0  0  0  0  0  0
   -3.3000    2.9833    0.0000 N   0  0  0  0  0  0  0  0  0  0  0  0
   -0.1625    1.9000    0.0000 C   0  0  0  0  0  0  0  0  0  0  0  0
   -1.4125    4.0542    0.0000 C   0  0  0  0  0  0  0  0  0  0  0  0
   -2.0500    5.1542    0.0000 C   0  0  0  0  0  0  0  0  0  0  0  0
   -0.1625    6.2375    0.0000 C   0  0  0  0  0  0  0  0  0  0  0  0
   -1.3958    8.3792    0.0000 O   0  5  0  0  0  0  0  0  0  0  0  0
   -3.2625    7.3167    0.0000 O   0  0  0  0  0  0  0  0  0  0  0  0
    0.5000    0.8000    0.0000 O   0  0  0  0  0  0  0  0  0  0  0  0
   -5.1958    1.9000    0.0000 O   0  0  0  0  0  0  0  0  0  0  0  0
   -0.1625    4.0542    0.0000 C   0  0  0  0  0  0  0  0  0  0  0  0
    0.4792    2.9833    0.0000 O   0  0  0  0  0  0  0  0  0  0  0  0
    0.4500    5.1542    0.0000 C   0  0  0  0  0  0  0  0  0  0  0  0
    1.7542    0.8000    0.0000 C   0  0  0  0  0  0  0  0  0  0  0  0
   -1.4125   -0.2792    0.0000 C   0  0  0  0  0  0  0  0  0  0  0  0
    2.4000   -0.3167    0.0000 C   0  0  0  0  0  0  0  0  0  0  0  0
    0.4667    7.3167    0.0000 O   0  0  0  0  0  0  0  0  0  0  0  0
    3.6542   -2.5000    0.0000 C   0  0  0  0  0  0  0  0  0  0  0  0
    1.7792   -1.4000    0.0000 C   0  0  0  0  0  0  0  0  0  0  0  0
    3.6792   -0.3167    0.0000 C   0  0  0  0  0  0  0  0  0  0  0  0
    4.3000   -1.4000    0.0000 C   0  0  0  0  0  0  0  0  0  0  0  0
    2.4167   -2.5000    0.0000 C   0  0  0  0  0  0  0  0  0  0  0  0
    4.2542   -3.6000    0.0000 C   0  0  0  0  0  0  0  0  0  0  0  0
  2  1  1  0  0  0  0
  3  1  2  0  0  0  0
  4  5  1  0  0  0  0
  5 11  2  0  0  0  0
  5 12  1  0  0  0  0
  6  7  1  0  0  0  0
  6  8  1  0  0  0  0
  7  3  1  0  0  0  0
  8  2  1  0  0  0  0
  9  1  1  0  0  0  0
 10  2  1  0  0  0  0
 11 10  1  0  0  0  0
 12 19  2  0  0  0  0
 13  4  1  0  0  0  0
 14  4  2  0  0  0  0
 15  9  1  0  0  0  0
 16  6  2  0  0  0  0
 17 10  2  0  0  0  0
 18  9  2  0  0  0  0
 19 17  1  0  0  0  0
 20 15  1  0  0  0  0
 21  3  1  0  0  0  0
 22 20  1  0  0  0  0
 23 12  1  0  0  0  0
 24 27  1  0  0  0  0
 24 28  2  0  0  0  0
 25 22  2  0  0  0  0
 26 22  1  0  0  0  0
 27 26  2  0  0  0  0
 28 25  1  0  0  0  0
 29 24  1  0  0  0  0
M  CHG  2   4   1  13  -1
M  END
>  <ID>
5615734

>  <Supplier>
ChemBridge

>  <clogP>
5.380000000000000e+000

>  <RB>
5

>  <tPSA>
1.308000000000000e+002

>  <Hacc>
6

>  <Hdon>
3

>  <LogSw>
-6.691999999999998e+000

>  <Group>
2

>  <Core>
072

$$$$
5615735
 OpenBabel03312015312D

 29 30  0  0  0  0  0  0  0  0999 V2000
    3.9167   -2.8542    0.0000 S   0  0  0  0  0  0  0  0  0  0  0  0
    3.9167   -2.1042    0.0000 N   0  0  0  0  0  0  0  0  0  0  0  0
    3.2667   -3.2375    0.0000 C   0  0  0  0  0  0  0  0  0  0  0  0
    3.2667   -1.7292    0.0000 C   0  0  0  0  0  0  0  0  0  0  0  0
    4.5792   -1.7292    0.0000 C   0  0  0  0  0  0  0  0  0  0  0  0
    5.2292   -2.1042    0.0000 C   0  0  0  0  0  0  0  0  0  0  0  0
    2.6167   -2.8542    0.0000 C   0  0  0  0  0  0  0  0  0  0  0  0
    4.7792   -2.8542    0.0000 O   0  0  0  0  0  0  0  0  0  0  0  0
    4.1500   -3.6167    0.0000 O   0  0  0  0  0  0  0  0  0  0  0  0
    1.9542   -3.2292    0.0000 C   0  0  0  0  0  0  0  0  0  0  0  0
    3.2667   -0.9667    0.0000 C   0  0  0  0  0  0  0  0  0  0  0  0
    2.6167   -2.1000    0.0000 C   0  0  0  0  0  0  0  0  0  0  0  0
    5.8792   -1.7375    0.0000 N   0  0  0  0  0  0  0  0  0  0  0  0
    1.9542   -3.9875    0.0000 C   0  0  0  0  0  0  0  0  0  0  0  0
    3.2667   -3.9875    0.0000 C   0  0  0  0  0  0  0  0  0  0  0  0
    5.2292   -2.8542    0.0000 O   0  0  0  0  0  0  0  0  0  0  0  0
    2.6167   -0.6000    0.0000 C   0  0  0  0  0  0  0  0  0  0  0  0
    1.9667   -1.7292    0.0000 C   0  0  0  0  0  0  0  0  0  0  0  0
    2.6042   -4.3542    0.0000 C   0  0  0  0  0  0  0  0  0  0  0  0
    1.9667   -0.9667    0.0000 C   0  0  0  0  0  0  0  0  0  0  0  0
    1.3042   -2.8500    0.0000 O   0  0  0  0  0  0  0  0  0  0  0  0
    1.3042   -4.3542    0.0000 O   0  0  0  0  0  0  0  0  0  0  0  0
    6.5292   -2.1042    0.0000 C   0  0  0  0  0  0  0  0  0  0  0  0
    1.3167   -2.1000    0.0000 C   0  0  0  0  0  0  0  0  0  0  0  0
    2.6167    0.1500    0.0000 C   0  0  0  0  0  0  0  0  0  0  0  0
    0.6542   -3.2292    0.0000 C   0  0  0  0  0  0  0  0  0  0  0  0
    0.6542   -3.9792    0.0000 C   0  0  0  0  0  0  0  0  0  0  0  0
    6.5292   -2.8542    0.0000 C   0  0  0  0  0  0  0  0  0  0  0  0
    7.1792   -1.7375    0.0000 C   0  0  0  0  0  0  0  0  0  0  0  0
  2  1  1  0  0  0  0
  3  1  1  0  0  0  0
  4  2  1  0  0  0  0
  5  2  1  0  0  0  0
  6  5  1  0  0  0  0
  7  3  2  0  0  0  0
  8  1  2  0  0  0  0
  9  1  2  0  0  0  0
 10  7  1  0  0  0  0
 11  4  2  0  0  0  0
 12  4  1  0  0  0  0
 13  6  1  0  0  0  0
 14 19  1  0  0  0  0
 14 10  2  0  0  0  0
 15  3  1  0  0  0  0
 16  6  2  0  0  0  0
 17 11  1  0  0  0  0
 17 20  2  0  0  0  0
 18 12  2  0  0  0  0
 19 15  2  0  0  0  0
 20 18  1  0  0  0  0
 21 10  1  0  0  0  0
 22 14  1  0  0  0  0
 23 13  1  0  0  0  0
 24 18  1  0  0  0  0
 25 17  1  0  0  0  0
 26 21  1  0  0  0  0
 27 22  1  0  0  0  0
 28 23  1  0  0  0  0
 29 23  1  0  0  0  0
M  END
>  <ID>
5615735

>  <Supplier>
ChemBridge

>  <clogP>
3.590000000000000e+000

>  <RB>
4

>  <tPSA>
8.494000000000000e+001

>  <Hacc>
5

>  <Hdon>
1

>  <LogSw>
-5.331000000000000e+000

>  <Group>
2

>  <Core>
084

$$$$
9007252
 OpenBabel03312015312D

 28 31  0  0  0  0  0  0  0  0999 V2000
    6.7792    1.3958    0.0000 N   0  0  0  0  0  0  0  0  0  0  0  0
    2.8875    0.6458    0.0000 C   0  0  0  0  0  0  0  0  0  0  0  0
    7.4292    1.7708    0.0000 C   0  0  0  0  0  0  0  0  0  0  0  0
    8.0792    1.3958    0.0000 C   0  0  0  0  0  0  0  0  0  0  0  0
    8.7292    1.7708    0.0000 C   0  0  0  0  0  0  0  0  0  0  0  0
    5.4875    0.6458    0.0000 N   0  0  0  0  0  0  0  0  0  0  0  0
    2.2375    0.2708    0.0000 N   0  0  0  0  0  0  0  0  0  0  0  0
    8.7292    2.5208    0.0000 C   0  0  0  0  0  0  0  0  0  0  0  0
    9.3792    1.3958    0.0000 O   0  0  0  0  0  0  0  0  0  0  0  0
    6.7792    0.6458    0.0000 C   0  0  0  0  0  0  0  0  0  0  0  0
    6.1292    1.7708    0.0000 C   0  0  0  0  0  0  0  0  0  0  0  0
    2.8875    1.3958    0.0000 O   0  0  0  0  0  0  0  0  0  0  0  0
    9.3792    2.8958    0.0000 O   0  0  0  0  0  0  0  0  0  0  0  0
    7.4292    2.5208    0.0000 C   0  0  0  0  0  0  0  0  0  0  0  0
    3.5375    0.2708    0.0000 N   0  0  0  0  0  0  0  0  0  0  0  0
    8.0792    2.8958    0.0000 C   0  0  0  0  0  0  0  0  0  0  0  0
    6.1292    0.2708    0.0000 C   0  0  0  0  0  0  0  0  0  0  0  0
    5.4875    1.3958    0.0000 C   0  0  0  0  0  0  0  0  0  0  0  0
    1.5875    0.6458    0.0000 C   0  0  0  0  0  0  0  0  0  0  0  0
    4.1875    0.6458    0.0000 C   0  0  0  0  0  0  0  0  0  0  0  0
    4.8375    0.2708    0.0000 C   0  0  0  0  0  0  0  0  0  0  0  0
   10.0292    1.7708    0.0000 C   0  0  0  0  0  0  0  0  0  0  0  0
   10.0292    2.5208    0.0000 C   0  0  0  0  0  0  0  0  0  0  0  0
    1.5875    1.3958    0.0000 C   0  0  0  0  0  0  0  0  0  0  0  0
    0.9375    0.2708    0.0000 C   0  0  0  0  0  0  0  0  0  0  0  0
    0.2875    0.6458    0.0000 C   0  0  0  0  0  0  0  0  0  0  0  0
    0.9375    1.7708    0.0000 C   0  0  0  0  0  0  0  0  0  0  0  0
    0.2875    1.3958    0.0000 C   0  0  0  0  0  0  0  0  0  0  0  0
  2 15  1  0  0  0  0
  3  1  1  0  0  0  0
  4  3  2  0  0  0  0
  5  4  1  0  0  0  0
  6 18  1  0  0  0  0
  7  2  1  0  0  0  0
  8 16  1  0  0  0  0
  8  5  2  0  0  0  0
  9  5  1  0  0  0  0
 10  1  1  0  0  0  0
 11  1  1  0  0  0  0
 12  2  2  0  0  0  0
 13  8  1  0  0  0  0
 14  3  1  0  0  0  0
 15 20  1  0  0  0  0
 16 14  2  0  0  0  0
 17 10  1  0  0  0  0
 17  6  1  0  0  0  0
 18 11  1  0  0  0  0
 19  7  1  0  0  0  0
 20 21  1  0  0  0  0
 21  6  1  0  0  0  0
 22  9  1  0  0  0  0
 23 13  1  0  0  0  0
 23 22  1  0  0  0  0
 24 19  2  0  0  0  0
 25 19  1  0  0  0  0
 26 25  2  0  0  0  0
 27 24  1  0  0  0  0
 28 26  1  0  0  0  0
 28 27  2  0  0  0  0
M  END
>  <ID>
9007252

>  <Supplier>
ChemBridge

>  <clogP>
2.750000000000000e+000

>  <RB>
5

>  <tPSA>
6.606999999999998e+001

>  <Hacc>
4

>  <Hdon>
2

>  <LogSw>
-4.337000000000000e+000

>  <Group>
2

>  <Core>
162

$$$$
5615732
 OpenBabel03312015312D

 23 24  0  0  0  0  0  0  0  0999 V2000
    1.6542    0.4500    0.0000 C   0  0  0  0  0  0  0  0  0  0  0  0
    1.3292    1.0333    0.0000 C   0  0  0  0  0  0  0  0  0  0  0  0
    2.3375    0.4500    0.0000 C   0  0  0  0  0  0  0  0  0  0  0  0
    0.3167    0.4500    0.0000 C   0  0  0  0  0  0  0  0  0  0  0  0
    0.6542    1.0333    0.0000 C   0  0  0  0  0  0  0  0  0  0  0  0
   -0.3625    0.4458    0.0000 C   0  0  0  0  0  0  0  0  0  0  0  0
   -0.6833   -0.1375    0.0000 C   0  0  0  0  0  0  0  0  0  0  0  0
    2.6667    1.0333    0.0000 C   0  0  0  0  0  0  0  0  0  0  0  0
   -0.3458   -0.7292    0.0000 C   0  0  0  0  0  0  0  0  0  0  0  0
    2.6667   -0.1375    0.0000 C   0  0  0  0  0  0  0  0  0  0  0  0
    0.6500   -0.1292    0.0000 C   0  0  0  0  0  0  0  0  0  0  0  0
    0.3167    1.6000    0.0000 O   0  0  0  0  0  0  0  0  0  0  0  0
    0.3167   -0.7042    0.0000 C   0  0  0  0  0  0  0  0  0  0  0  0
    3.3542    1.0333    0.0000 C   0  0  0  0  0  0  0  0  0  0  0  0
    3.3542   -0.1375    0.0000 C   0  0  0  0  0  0  0  0  0  0  0  0
    3.6875    0.4500    0.0000 C   0  0  0  0  0  0  0  0  0  0  0  0
   -1.3500   -0.1375    0.0000 O   0  0  0  0  0  0  0  0  0  0  0  0
    3.7000   -0.7000    0.0000 Br  0  0  0  0  0  0  0  0  0  0  0  0
   -0.6833   -1.3000    0.0000 O   0  0  0  0  0  0  0  0  0  0  0  0
    2.3292    1.5958    0.0000 O   0  0  0  0  0  0  0  0  0  0  0  0
   -1.6833   -0.7167    0.0000 C   0  0  0  0  0  0  0  0  0  0  0  0
   -1.3500   -1.3000    0.0000 C   0  0  0  0  0  0  0  0  0  0  0  0
    2.6375    2.1625    0.0000 C   0  0  0  0  0  0  0  0  0  0  0  0
  2  1  2  0  0  0  0
  3  1  1  0  0  0  0
  4  5  1  0  0  0  0
  5  2  1  0  0  0  0
  6  4  2  0  0  0  0
  7  6  1  0  0  0  0
  8  3  1  0  0  0  0
  9 13  1  0  0  0  0
  9  7  2  0  0  0  0
 10  3  2  0  0  0  0
 11  4  1  0  0  0  0
 12  5  2  0  0  0  0
 13 11  2  0  0  0  0
 14  8  2  0  0  0  0
 15 10  1  0  0  0  0
 16 15  2  0  0  0  0
 16 14  1  0  0  0  0
 17  7  1  0  0  0  0
 18 15  1  0  0  0  0
 19  9  1  0  0  0  0
 20  8  1  0  0  0  0
 21 17  1  0  0  0  0
 22 19  1  0  0  0  0
 23 20  1  0  0  0  0
M  END
>  <ID>
5615732

>  <Supplier>
ChemBridge

>  <clogP>
3.890000000000000e+000

>  <RB>
3

>  <tPSA>
4.476000000000002e+001

>  <Hacc>
4

>  <Hdon>
0

>  <LogSw>
-5.272000000000000e+000

>  <Group>
1

>  <Core>
237

$$$$
9155589
 OpenBabel03312015312D

 34 38  0  0  0  0  0  0  0  0999 V2000
    6.5417    2.4750    0.0000 C   0  0  0  0  0  0  0  0  0  0  0  0
    5.8917    2.1000    0.0000 C   0  0  0  0  0  0  0  0  0  0  0  0
    5.2417    2.4750    0.0000 C   0  0  3  0  0  0  0  0  0  0  0  0
    4.5917    2.1000    0.0000 C   0  0  3  0  0  0  0  0  0  0  0  0
    7.2292    2.1708    0.0000 C   0  0  0  0  0  0  0  0  0  0  0  0
    3.9417    2.4750    0.0000 N   0  0  0  0  0  0  0  0  0  0  0  0
    7.7292    2.7333    0.0000 N   0  0  0  0  0  0  0  0  0  0  0  0
    6.6167    3.2208    0.0000 C   0  0  0  0  0  0  0  0  0  0  0  0
    4.5917    1.3500    0.0000 C   0  0  0  0  0  0  0  0  0  0  0  0
    2.6417    3.2333    0.0000 N   0  0  0  0  0  0  0  0  0  0  0  0
    1.9917    3.6083    0.0000 C   0  0  0  0  0  0  0  0  0  0  0  0
    7.3542    3.3833    0.0000 C   0  0  0  0  0  0  0  0  0  0  0  0
    1.9917    4.3417    0.0000 N   0  0  0  0  0  0  0  0  0  0  0  0
    5.8917    1.3500    0.0000 O   0  0  0  0  0  0  0  0  0  0  0  0
    3.2917    2.1000    0.0000 C   0  0  0  0  0  0  0  0  0  0  0  0
    3.9417    3.2333    0.0000 C   0  0  0  0  0  0  0  0  0  0  0  0
    3.9417    0.9750    0.0000 C   0  0  0  0  0  0  0  0  0  0  0  0
    3.2917    3.6083    0.0000 C   0  0  0  0  0  0  0  0  0  0  0  0
    2.6417    2.4750    0.0000 C   0  0  0  0  0  0  0  0  0  0  0  0
    5.2417    3.2333    0.0000 O   0  0  0  0  0  0  0  0  0  0  0  0
    3.2917    1.3500    0.0000 O   0  0  0  0  0  0  0  0  0  0  0  0
    5.2417    0.9750    0.0000 C   0  0  0  0  0  0  0  0  0  0  0  0
    6.1167    3.7833    0.0000 C   0  0  0  0  0  0  0  0  0  0  0  0
    1.3417    3.2333    0.0000 C   0  0  0  0  0  0  0  0  0  0  0  0
    1.3417    4.7167    0.0000 C   0  0  0  0  0  0  0  0  0  0  0  0
    7.5875    4.0875    0.0000 C   0  0  0  0  0  0  0  0  0  0  0  0
    3.9417    0.2250    0.0000 C   0  0  0  0  0  0  0  0  0  0  0  0
    2.6417    0.9750    0.0000 C   0  0  0  0  0  0  0  0  0  0  0  0
    5.2417    0.2250    0.0000 C   0  0  0  0  0  0  0  0  0  0  0  0
    6.3542    4.4792    0.0000 C   0  0  0  0  0  0  0  0  0  0  0  0
    0.7000    3.6083    0.0000 C   0  0  0  0  0  0  0  0  0  0  0  0
    0.7000    4.3417    0.0000 C   0  0  0  0  0  0  0  0  0  0  0  0
    7.0875    4.6417    0.0000 C   0  0  0  0  0  0  0  0  0  0  0  0
    4.5917   -0.1500    0.0000 C   0  0  0  0  0  0  0  0  0  0  0  0
  2  1  1  0  0  0  0
  3  2  1  0  0  0  0
  4  3  1  0  0  0  0
  5  1  2  0  0  0  0
  6  4  1  0  0  0  0
  7  5  1  0  0  0  0
  7 12  1  0  0  0  0
  8  1  1  0  0  0  0
  9  4  1  0  0  0  0
 10 18  1  0  0  0  0
 11 10  1  0  0  0  0
 12  8  1  0  0  0  0
 13 11  2  0  0  0  0
 14  2  2  0  0  0  0
 15  6  1  0  0  0  0
 16  6  1  0  0  0  0
 17  9  2  0  0  0  0
 18 16  1  0  0  0  0
 19 15  1  0  0  0  0
 19 10  1  0  0  0  0
 20  3  1  0  0  0  0
 21 17  1  0  0  0  0
 22  9  1  0  0  0  0
 23  8  2  0  0  0  0
 24 11  1  0  0  0  0
 25 13  1  0  0  0  0
 25 32  2  0  0  0  0
 26 12  2  0  0  0  0
 27 17  1  0  0  0  0
 27 34  2  0  0  0  0
 28 21  1  0  0  0  0
 29 22  2  0  0  0  0
 30 23  1  0  0  0  0
 31 24  2  0  0  0  0
 32 31  1  0  0  0  0
 33 30  2  0  0  0  0
 33 26  1  0  0  0  0
 34 29  1  0  0  0  0
M  END
>  <ID>
9155589

>  <Supplier>
ChemBridge

>  <clogP>
3.280000000000000e+000

>  <RB>
6

>  <tPSA>
8.169000000000000e+001

>  <Hacc>
5

>  <Hdon>
2

>  <LogSw>
-4.321000000000000e+000

>  <Group>
2

>  <Core>
501

$$$$
9155586
 OpenBabel03312015312D

 22 23  0  0  0  0  0  0  0  0999 V2000
    1.9750    0.9458    0.0000 S   0  0  0  0  0  0  0  0  0  0  0  0
    2.6917    1.1375    0.0000 C   0  0  0  0  0  0  0  0  0  0  0  0
    3.2792    0.6708    0.0000 C   0  0  0  0  0  0  0  0  0  0  0  0
    3.9042    1.0750    0.0000 C   0  0  0  0  0  0  0  0  0  0  0  0
    1.6000    1.5958    0.0000 N   0  0  0  0  0  0  0  0  0  0  0  0
    4.6042    0.8083    0.0000 C   0  0  0  0  0  0  0  0  0  0  0  0
    3.7167    1.7958    0.0000 S   0  0  0  0  0  0  0  0  0  0  0  0
    2.9667    1.8375    0.0000 C   0  0  0  0  0  0  0  0  0  0  0  0
    5.1917    1.2750    0.0000 N   0  0  0  0  0  0  0  0  0  0  0  0
    1.2917    0.6250    0.0000 O   0  0  0  0  0  0  0  0  0  0  0  0
    2.2292    0.2375    0.0000 O   0  0  0  0  0  0  0  0  0  0  0  0
    4.7250    0.0625    0.0000 O   0  0  0  0  0  0  0  0  0  0  0  0
    5.8917    1.0083    0.0000 C   0  0  0  0  0  0  0  0  0  0  0  0
    1.9750    2.2458    0.0000 C   0  0  0  0  0  0  0  0  0  0  0  0
    0.8500    1.5958    0.0000 C   0  0  0  0  0  0  0  0  0  0  0  0
    7.0792    1.5375    0.0000 O   0  0  0  0  0  0  0  0  0  0  0  0
    6.3292    1.6125    0.0000 C   0  0  0  0  0  0  0  0  0  0  0  0
    5.5625    0.3333    0.0000 C   0  0  0  0  0  0  0  0  0  0  0  0
    6.5375    0.6208    0.0000 C   0  0  0  0  0  0  0  0  0  0  0  0
    0.4750    2.2458    0.0000 C   0  0  0  0  0  0  0  0  0  0  0  0
    1.6000    2.8958    0.0000 C   0  0  0  0  0  0  0  0  0  0  0  0
    0.8500    2.8958    0.0000 C   0  0  0  0  0  0  0  0  0  0  0  0
  2  1  1  0  0  0  0
  3  2  1  0  0  0  0
  4  3  2  0  0  0  0
  5  1  1  0  0  0  0
  6  4  1  0  0  0  0
  7  8  1  0  0  0  0
  7  4  1  0  0  0  0
  8  2  2  0  0  0  0
  9  6  1  0  0  0  0
 10  1  2  0  0  0  0
 11  1  2  0  0  0  0
 12  6  2  0  0  0  0
 13  9  1  0  0  0  0
 14  5  1  0  0  0  0
 15  5  1  0  0  0  0
 16 17  1  0  0  0  0
 17 13  1  0  0  0  0
 18 13  1  0  0  0  0
 19 13  1  0  0  0  0
 20 15  1  0  0  0  0
 21 14  1  0  0  0  0
 21 22  1  0  0  0  0
 22 20  1  0  0  0  0
M  END
>  <ID>
9155586

>  <Supplier>
ChemBridge

>  <clogP>
1.492000000000000e+000

>  <RB>
4

>  <tPSA>
8.671000000000001e+001

>  <Hacc>
5

>  <Hdon>
2

>  <LogSw>
-3.000000000000000e+000

>  <Group>
2

$$$$
9155584
 OpenBabel03312015312D

 27 29  0  0  0  0  0  0  0  0999 V2000
    7.0042    1.8500    0.0000 C   0  0  0  0  0  0  0  0  0  0  0  0
    3.6292    2.5000    0.0000 C   0  0  0  0  0  0  0  0  0  0  0  0
    7.7542    1.8500    0.0000 C   0  0  0  0  0  0  0  0  0  0  0  0
    3.2542    3.1458    0.0000 N   0  0  0  0  0  0  0  0  0  0  0  0
    6.6292    2.5000    0.0000 N   0  0  0  0  0  0  0  0  0  0  0  0
    4.3792    2.5000    0.0000 C   0  0  0  0  0  0  0  0  0  0  0  0
    8.1292    1.2000    0.0000 C   0  0  0  0  0  0  0  0  0  0  0  0
    3.2542    1.8500    0.0000 O   0  0  0  0  0  0  0  0  0  0  0  0
    6.6292    1.2000    0.0000 O   0  0  0  0  0  0  0  0  0  0  0  0
    2.5042    3.1458    0.0000 C   0  0  0  0  0  0  0  0  0  0  0  0
    4.7542    1.8500    0.0000 C   0  0  0  0  0  0  0  0  0  0  0  0
    4.7542    3.1458    0.0000 C   0  0  0  0  0  0  0  0  0  0  0  0
    5.8792    2.5000    0.0000 C   0  0  0  0  0  0  0  0  0  0  0  0
    7.7542    0.5500    0.0000 F   0  0  0  0  0  0  0  0  0  0  0  0
    5.5042    1.8500    0.0000 C   0  0  0  0  0  0  0  0  0  0  0  0
    5.5042    3.1458    0.0000 C   0  0  0  0  0  0  0  0  0  0  0  0
    8.1292    2.5000    0.0000 C   0  0  0  0  0  0  0  0  0  0  0  0
    3.6292    3.7958    0.0000 C   0  0  0  0  0  0  0  0  0  0  0  0
    8.8792    1.2000    0.0000 C   0  0  0  0  0  0  0  0  0  0  0  0
    2.1292    3.7958    0.0000 C   0  0  0  0  0  0  0  0  0  0  0  0
    2.1292    2.5000    0.0000 C   0  0  0  0  0  0  0  0  0  0  0  0
    3.2542    4.4417    0.0000 C   0  0  0  0  0  0  0  0  0  0  0  0
    8.8792    2.5000    0.0000 C   0  0  0  0  0  0  0  0  0  0  0  0
    1.3792    2.5000    0.0000 C   0  0  0  0  0  0  0  0  0  0  0  0
    1.3792    3.7958    0.0000 C   0  0  0  0  0  0  0  0  0  0  0  0
    9.2542    1.8500    0.0000 C   0  0  0  0  0  0  0  0  0  0  0  0
    1.0042    3.1458    0.0000 C   0  0  0  0  0  0  0  0  0  0  0  0
  2  6  1  0  0  0  0
  3  1  1  0  0  0  0
  4  2  1  0  0  0  0
  5  1  1  0  0  0  0
  6 12  2  0  0  0  0
  7  3  1  0  0  0  0
  8  2  2  0  0  0  0
  9  1  2  0  0  0  0
 10  4  1  0  0  0  0
 11 15  2  0  0  0  0
 11  6  1  0  0  0  0
 12 16  1  0  0  0  0
 13  5  1  0  0  0  0
 14  7  1  0  0  0  0
 15 13  1  0  0  0  0
 16 13  2  0  0  0  0
 17  3  2  0  0  0  0
 18  4  1  0  0  0  0
 19  7  2  0  0  0  0
 20 10  2  0  0  0  0
 21 10  1  0  0  0  0
 22 18  1  0  0  0  0
 23 17  1  0  0  0  0
 24 21  2  0  0  0  0
 25 20  1  0  0  0  0
 26 23  2  0  0  0  0
 26 19  1  0  0  0  0
 27 24  1  0  0  0  0
 27 25  2  0  0  0  0
M  END
>  <ID>
9155584

>  <Supplier>
ChemBridge

>  <clogP>
3.686000000000000e+000

>  <RB>
4

>  <tPSA>
4.941000000000003e+001

>  <Hacc>
2

>  <Hdon>
1

>  <LogSw>
-4.990000000000000e+000

>  <Group>
2

$$$$
9155585
 OpenBabel03312015312D

 17 17  0  0  0  0  0  0  0  0999 V2000
    2.4417    3.0250    0.0000 S   0  0  0  0  0  0  0  0  0  0  0  0
    2.4417    2.2750    0.0000 N   0  0  0  0  0  0  0  0  0  0  0  0
    1.7917    1.9000    0.0000 C   0  0  3  0  0  0  0  0  0  0  0  0
    1.7917    1.1500    0.0000 C   0  0  0  0  0  0  0  0  0  0  0  0
    3.1625    3.2208    0.0000 O   0  0  0  0  0  0  0  0  0  0  0  0
    2.3042    3.7708    0.0000 O   0  0  0  0  0  0  0  0  0  0  0  0
    3.0875    1.9000    0.0000 C   0  0  0  0  0  0  0  0  0  0  0  0
    1.1417    0.7750    0.0000 O   0  0  0  0  0  0  0  0  0  0  0  0
    2.4417    0.7750    0.0000 N   0  0  0  0  0  0  0  0  0  0  0  0
    1.6917    2.9625    0.0000 C   0  0  0  0  0  0  0  0  0  0  0  0
    1.1417    2.2750    0.0000 C   0  0  0  0  0  0  0  0  0  0  0  0
    3.0875    1.1500    0.0000 C   0  0  0  0  0  0  0  0  0  0  0  0
    3.7375    2.2750    0.0000 C   0  0  0  0  0  0  0  0  0  0  0  0
    0.4917    1.9000    0.0000 C   0  0  0  0  0  0  0  0  0  0  0  0
    3.7375    0.7750    0.0000 C   0  0  0  0  0  0  0  0  0  0  0  0
    4.3875    1.9000    0.0000 C   0  0  0  0  0  0  0  0  0  0  0  0
    4.3875    1.1500    0.0000 C   0  0  0  0  0  0  0  0  0  0  0  0
  2  1  1  0  0  0  0
  3  2  1  0  0  0  0
  4  3  1  0  0  0  0
  5  1  2  0  0  0  0
  6  1  2  0  0  0  0
  7  2  1  0  0  0  0
  8  4  2  0  0  0  0
  9  4  1  0  0  0  0
 10  1  1  0  0  0  0
 11  3  1  0  0  0  0
 12  7  1  0  0  0  0
 13  7  2  0  0  0  0
 14 11  1  0  0  0  0
 15 12  2  0  0  0  0
 15 17  1  0  0  0  0
 16 13  1  0  0  0  0
 17 16  2  0  0  0  0
M  END
>  <ID>
9155585

>  <Supplier>
ChemBridge

>  <clogP>
9.260000000000002e-001

>  <RB>
3

>  <tPSA>
8.046999999999999e+001

>  <Hacc>
3

>  <Hdon>
1

>  <LogSw>
-1.861000000000000e+000

>  <Group>
2

$$$$
9155582
 OpenBabel03312015312D

 23 25  0  0  0  0  0  0  0  0999 V2000
    6.9917    2.1833    0.0000 C   0  0  0  0  0  0  0  0  0  0  0  0
    6.6167    1.5333    0.0000 C   0  0  0  0  0  0  0  0  0  0  0  0
    2.4917    0.8833    0.0000 N   0  0  0  0  0  0  0  0  0  0  0  0
    5.8667    1.5333    0.0000 N   0  0  0  0  0  0  0  0  0  0  0  0
    3.2417    0.8833    0.0000 C   0  0  0  0  0  0  0  0  0  0  0  0
    7.7417    2.1833    0.0000 C   0  0  0  0  0  0  0  0  0  0  0  0
    6.9917    0.8833    0.0000 O   0  0  0  0  0  0  0  0  0  0  0  0
    3.6167    0.2333    0.0000 C   0  0  0  0  0  0  0  0  0  0  0  0
    3.6167    1.5333    0.0000 C   0  0  0  0  0  0  0  0  0  0  0  0
    5.4917    0.8833    0.0000 C   0  0  0  0  0  0  0  0  0  0  0  0
    4.7417    0.8833    0.0000 C   0  0  0  0  0  0  0  0  0  0  0  0
    4.3667    0.2333    0.0000 C   0  0  0  0  0  0  0  0  0  0  0  0
    4.3667    1.5333    0.0000 C   0  0  0  0  0  0  0  0  0  0  0  0
    6.6167    2.8333    0.0000 C   0  0  0  0  0  0  0  0  0  0  0  0
    8.1167    1.5333    0.0000 O   0  0  0  0  0  0  0  0  0  0  0  0
    2.0500    1.4875    0.0000 C   0  0  0  0  0  0  0  0  0  0  0  0
    2.0500    0.2750    0.0000 C   0  0  0  0  0  0  0  0  0  0  0  0
    8.1167    2.8333    0.0000 C   0  0  0  0  0  0  0  0  0  0  0  0
    8.8667    1.5333    0.0000 C   0  0  0  0  0  0  0  0  0  0  0  0
    6.9917    3.4833    0.0000 C   0  0  0  0  0  0  0  0  0  0  0  0
    1.3375    1.2583    0.0000 C   0  0  0  0  0  0  0  0  0  0  0  0
    1.3375    0.5083    0.0000 C   0  0  0  0  0  0  0  0  0  0  0  0
    7.7417    3.4833    0.0000 C   0  0  0  0  0  0  0  0  0  0  0  0
  2  1  1  0  0  0  0
  3  5  1  0  0  0  0
  4  2  1  0  0  0  0
  5  9  2  0  0  0  0
  6  1  2  0  0  0  0
  7  2  2  0  0  0  0
  8 12  2  0  0  0  0
  8  5  1  0  0  0  0
  9 13  1  0  0  0  0
 10  4  1  0  0  0  0
 11 10  1  0  0  0  0
 12 11  1  0  0  0  0
 13 11  2  0  0  0  0
 14  1  1  0  0  0  0
 15  6  1  0  0  0  0
 16  3  1  0  0  0  0
 17  3  1  0  0  0  0
 18  6  1  0  0  0  0
 18 23  2  0  0  0  0
 19 15  1  0  0  0  0
 20 14  2  0  0  0  0
 21 16  1  0  0  0  0
 21 22  1  0  0  0  0
 22 17  1  0  0  0  0
 23 20  1  0  0  0  0
M  END
>  <ID>
9155582

>  <Supplier>
ChemBridge

>  <clogP>
3.759000000000000e+000

>  <RB>
4

>  <tPSA>
4.156999999999997e+001

>  <Hacc>
2

>  <Hdon>
1

>  <LogSw>
-4.674000000000000e+000

>  <Group>
2

$$$$
9155583
 OpenBabel03312015312D

 25 28  0  0  0  0  0  0  0  0999 V2000
    3.6500    2.6458    0.0000 C   0  0  0  0  0  0  0  0  0  0  0  0
    2.4667    2.3958    0.0000 N   0  0  0  0  0  0  0  0  0  0  0  0
    2.9667    2.9583    0.0000 C   0  0  0  0  0  0  0  0  0  0  0  0
    5.6000    3.0208    0.0000 N   0  0  0  0  0  0  0  0  0  0  0  0
    2.8417    1.7458    0.0000 C   0  0  0  0  0  0  0  0  0  0  0  0
    3.5750    1.9000    0.0000 C   0  0  0  0  0  0  0  0  0  0  0  0
    6.2500    2.6458    0.0000 C   0  0  0  0  0  0  0  0  0  0  0  0
    4.3000    3.0208    0.0000 C   0  0  0  0  0  0  0  0  0  0  0  0
    4.9500    2.6458    0.0000 C   0  0  0  0  0  0  0  0  0  0  0  0
    5.6000    3.7708    0.0000 C   0  0  0  0  0  0  0  0  0  0  0  0
    1.7167    2.4708    0.0000 C   0  0  0  0  0  0  0  0  0  0  0  0
    6.9000    3.7708    0.0000 O   0  0  0  0  0  0  0  0  0  0  0  0
    1.1125    2.9125    0.0000 C   0  0  0  0  0  0  0  0  0  0  0  0
    1.0292    2.1708    0.0000 C   0  0  0  0  0  0  0  0  0  0  0  0
    6.9000    3.0208    0.0000 C   0  0  0  0  0  0  0  0  0  0  0  0
    6.2500    4.1417    0.0000 C   0  0  0  0  0  0  0  0  0  0  0  0
    6.2500    1.8958    0.0000 C   0  0  0  0  0  0  0  0  0  0  0  0
    4.3000    3.7708    0.0000 O   0  0  0  0  0  0  0  0  0  0  0  0
    4.9500    4.1417    0.0000 O   0  0  0  0  0  0  0  0  0  0  0  0
    7.5500    2.6458    0.0000 C   0  0  0  0  0  0  0  0  0  0  0  0
    2.8125    3.6833    0.0000 C   0  0  0  0  0  0  0  0  0  0  0  0
    6.9000    1.5208    0.0000 C   0  0  0  0  0  0  0  0  0  0  0  0
    2.5292    1.0583    0.0000 C   0  0  0  0  0  0  0  0  0  0  0  0
    7.5500    1.8958    0.0000 C   0  0  0  0  0  0  0  0  0  0  0  0
    6.9000    0.7708    0.0000 C   0  0  0  0  0  0  0  0  0  0  0  0
  2  3  1  0  0  0  0
  2  5  1  0  0  0  0
  3  1  2  0  0  0  0
  4  9  1  0  0  0  0
  5  6  2  0  0  0  0
  6  1  1  0  0  0  0
  7  4  1  0  0  0  0
  8  1  1  0  0  0  0
  9  8  1  0  0  0  0
 10  4  1  0  0  0  0
 11  2  1  0  0  0  0
 12 16  1  0  0  0  0
 12 15  1  0  0  0  0
 13 11  1  0  0  0  0
 13 14  1  0  0  0  0
 14 11  1  0  0  0  0
 15  7  1  0  0  0  0
 16 10  1  0  0  0  0
 17  7  2  0  0  0  0
 18  8  2  0  0  0  0
 19 10  2  0  0  0  0
 20 15  2  0  0  0  0
 20 24  1  0  0  0  0
 21  3  1  0  0  0  0
 22 17  1  0  0  0  0
 23  5  1  0  0  0  0
 24 22  2  0  0  0  0
 25 22  1  0  0  0  0
M  END
>  <ID>
9155583

>  <Supplier>
ChemBridge

>  <clogP>
3.681000000000000e+000

>  <RB>
4

>  <tPSA>
5.153999999999997e+001

>  <Hacc>
3

>  <Hdon>
0

>  <LogSw>
-4.811000000000000e+000

>  <Group>
2

>  <Core>
384

$$$$
9155581
 OpenBabel03312015312D

 25 27  0  0  0  0  0  0  0  0999 V2000
    1.7875    2.2250    0.0000 S   0  0  0  0  0  0  0  0  0  0  0  0
    2.1625    2.8750    0.0000 C   0  0  0  0  0  0  0  0  0  0  0  0
    5.1625    2.8750    0.0000 N   0  0  0  0  0  0  0  0  0  0  0  0
    6.2875    3.5250    0.0000 N   0  0  0  0  0  0  0  0  0  0  0  0
    4.4125    2.8750    0.0000 N   0  0  0  0  0  0  0  0  0  0  0  0
    5.5375    3.5250    0.0000 C   0  0  0  0  0  0  0  0  0  0  0  0
    2.9125    2.8750    0.0000 C   0  0  0  0  0  0  0  0  0  0  0  0
    3.2875    3.5250    0.0000 C   0  0  0  0  0  0  0  0  0  0  0  0
    4.0375    3.5250    0.0000 C   0  0  0  0  0  0  0  0  0  0  0  0
    1.1667    2.6583    0.0000 O   0  0  0  0  0  0  0  0  0  0  0  0
    1.3042    1.6500    0.0000 O   0  0  0  0  0  0  0  0  0  0  0  0
    2.3167    1.6958    0.0000 N   0  0  0  0  0  0  0  0  0  0  0  0
    1.7875    3.5250    0.0000 C   0  0  0  0  0  0  0  0  0  0  0  0
    6.6625    2.8750    0.0000 C   0  0  0  0  0  0  0  0  0  0  0  0
    6.6625    4.1667    0.0000 C   0  0  0  0  0  0  0  0  0  0  0  0
    5.1625    4.1667    0.0000 C   0  0  0  0  0  0  0  0  0  0  0  0
    2.9125    4.1667    0.0000 C   0  0  0  0  0  0  0  0  0  0  0  0
    4.4125    4.1667    0.0000 C   0  0  0  0  0  0  0  0  0  0  0  0
    2.1625    4.1667    0.0000 C   0  0  0  0  0  0  0  0  0  0  0  0
    7.4125    4.1667    0.0000 C   0  0  0  0  0  0  0  0  0  0  0  0
    7.4125    2.8750    0.0000 C   0  0  0  0  0  0  0  0  0  0  0  0
    7.7875    3.5250    0.0000 C   0  0  0  0  0  0  0  0  0  0  0  0
    1.0375    3.5250    0.0000 C   0  0  0  0  0  0  0  0  0  0  0  0
    2.1167    0.9708    0.0000 C   0  0  0  0  0  0  0  0  0  0  0  0
    8.5375    3.5250    0.0000 C   0  0  0  0  0  0  0  0  0  0  0  0
  2  1  1  0  0  0  0
  3  5  1  0  0  0  0
  3  6  2  0  0  0  0
  4  6  1  0  0  0  0
  5  9  2  0  0  0  0
  6 16  1  0  0  0  0
  7  2  2  0  0  0  0
  8  7  1  0  0  0  0
  8 17  2  0  0  0  0
  9  8  1  0  0  0  0
 10  1  2  0  0  0  0
 11  1  2  0  0  0  0
 12  1  1  0  0  0  0
 13  2  1  0  0  0  0
 14  4  1  0  0  0  0
 15  4  1  0  0  0  0
 16 18  2  0  0  0  0
 17 19  1  0  0  0  0
 18  9  1  0  0  0  0
 19 13  2  0  0  0  0
 20 15  1  0  0  0  0
 21 14  1  0  0  0  0
 21 22  1  0  0  0  0
 22 20  1  0  0  0  0
 23 13  1  0  0  0  0
 24 12  1  0  0  0  0
 25 22  1  0  0  0  0
M  END
>  <ID>
9155581

>  <Supplier>
ChemBridge

>  <clogP>
3.652000000000000e+000

>  <RB>
3

>  <tPSA>
7.519000000000000e+001

>  <Hacc>
5

>  <Hdon>
1

>  <LogSw>
-4.947000000000000e+000

>  <Group>
2

$$$$
6112946
 OpenBabel03312015312D

 22 23  0  0  0  0  0  0  0  0999 V2000
  -10.9292    6.8667    0.0000 C   0  0  0  0  0  0  0  0  0  0  0  0
  -12.9375    7.0500    0.0000 C   0  0  0  0  0  0  0  0  0  0  0  0
  -10.0042    8.6292    0.0000 S   0  0  0  0  0  0  0  0  0  0  0  0
   -9.9292    5.1375    0.0000 N   0  0  0  0  0  0  0  0  0  0  0  0
  -13.2667    9.0375    0.0000 C   0  0  0  0  0  0  0  0  0  0  0  0
  -11.5042   10.0542    0.0000 C   0  0  0  0  0  0  0  0  0  0  0  0
   -7.9375    5.1375    0.0000 C   0  0  0  0  0  0  0  0  0  0  0  0
  -14.2375    5.7917    0.0000 C   0  0  0  0  0  0  0  0  0  0  0  0
   -6.9500    3.4958    0.0000 N   0  0  0  0  0  0  0  0  0  0  0  0
   -6.9500    6.8667    0.0000 O   0  0  0  0  0  0  0  0  0  0  0  0
  -13.7292    3.7958    0.0000 O   0  0  0  0  0  0  0  0  0  0  0  0
  -16.0000    6.6375    0.0000 N   0  0  0  0  0  0  0  0  0  0  0  0
   -5.0458    3.4958    0.0000 C   0  0  0  0  0  0  0  0  0  0  0  0
   -1.1958    3.5458    0.0000 C   0  0  0  0  0  0  0  0  0  0  0  0
  -14.9792   10.0542    0.0000 C   0  0  0  0  0  0  0  0  0  0  0  0
    0.6792    3.5958    0.0000 Cl  0  0  0  0  0  0  0  0  0  0  0  0
  -10.9000   11.9667    0.0000 C   0  0  0  0  0  0  0  0  0  0  0  0
   -4.0500    1.8625    0.0000 C   0  0  0  0  0  0  0  0  0  0  0  0
   -4.1208    5.1167    0.0000 C   0  0  0  0  0  0  0  0  0  0  0  0
   -2.2125    5.1375    0.0000 C   0  0  0  0  0  0  0  0  0  0  0  0
   -2.1458    1.8625    0.0000 C   0  0  0  0  0  0  0  0  0  0  0  0
  -14.3375   12.1500    0.0000 C   0  0  0  0  0  0  0  0  0  0  0  0
  2  1  2  0  0  0  0
  3  1  1  0  0  0  0
  4  1  1  0  0  0  0
  5  2  1  0  0  0  0
  5  6  2  0  0  0  0
  6  3  1  0  0  0  0
  7  4  1  0  0  0  0
  8  2  1  0  0  0  0
  9  7  1  0  0  0  0
 10  7  2  0  0  0  0
 11  8  2  0  0  0  0
 12  8  1  0  0  0  0
 13  9  1  0  0  0  0
 14 20  1  0  0  0  0
 15  5  1  0  0  0  0
 16 14  1  0  0  0  0
 17  6  1  0  0  0  0
 18 13  2  0  0  0  0
 19 13  1  0  0  0  0
 20 19  2  0  0  0  0
 21 18  1  0  0  0  0
 21 14  2  0  0  0  0
 22 15  1  0  0  0  0
M  END
>  <ID>
6112946

>  <Supplier>
ChemBridge

>  <clogP>
4.170000000000000e+000

>  <RB>
3

>  <tPSA>
8.422000000000000e+001

>  <Hacc>
2

>  <Hdon>
3

>  <LogSw>
-5.225000000000000e+000

>  <Group>
3

>  <Core>
097

$$$$
7452405
 OpenBabel03312015312D

 27 29  0  0  0  0  0  0  0  0999 V2000
   -0.5833   -1.9667    0.0000 N   0  3  0  0  0  0  0  0  0  0  0  0
    2.0167   -0.4667    0.0000 C   0  0  0  0  0  0  0  0  0  0  0  0
    2.6667   -0.8417    0.0000 N   0  0  0  0  0  0  0  0  0  0  0  0
    1.3667   -0.8417    0.0000 C   0  0  0  0  0  0  0  0  0  0  0  0
    3.3167   -0.4667    0.0000 C   0  0  0  0  0  0  0  0  0  0  0  0
    0.7167   -0.4667    0.0000 C   0  0  0  0  0  0  0  0  0  0  0  0
    0.0667   -1.5917    0.0000 C   0  0  0  0  0  0  0  0  0  0  0  0
    3.9667   -0.8417    0.0000 N   0  0  0  0  0  0  0  0  0  0  0  0
    0.0667   -0.8417    0.0000 C   0  0  0  0  0  0  0  0  0  0  0  0
    5.2625   -1.5917    0.0000 N   0  0  0  0  0  0  0  0  0  0  0  0
    4.6167   -0.4667    0.0000 C   0  0  0  0  0  0  0  0  0  0  0  0
    5.2625   -0.8417    0.0000 C   0  0  0  0  0  0  0  0  0  0  0  0
    1.3667   -1.5917    0.0000 C   0  0  0  0  0  0  0  0  0  0  0  0
   -1.2333   -1.5917    0.0000 O   0  5  0  0  0  0  0  0  0  0  0  0
    3.3167    0.2833    0.0000 S   0  0  0  0  0  0  0  0  0  0  0  0
   -0.5833   -2.7167    0.0000 O   0  0  0  0  0  0  0  0  0  0  0  0
    2.0167    0.2833    0.0000 O   0  0  0  0  0  0  0  0  0  0  0  0
    0.7167   -1.9667    0.0000 C   0  0  0  0  0  0  0  0  0  0  0  0
    0.7167    0.2833    0.0000 Cl  0  0  0  0  0  0  0  0  0  0  0  0
    5.8667   -2.0375    0.0000 C   0  0  0  0  0  0  0  0  0  0  0  0
    4.6542   -2.0292    0.0000 C   0  0  0  0  0  0  0  0  0  0  0  0
    4.6167    0.2833    0.0000 C   0  0  0  0  0  0  0  0  0  0  0  0
    5.9167   -0.4667    0.0000 C   0  0  0  0  0  0  0  0  0  0  0  0
    4.8875   -2.7417    0.0000 C   0  0  0  0  0  0  0  0  0  0  0  0
    5.6375   -2.7500    0.0000 C   0  0  0  0  0  0  0  0  0  0  0  0
    5.2625    0.6625    0.0000 C   0  0  0  0  0  0  0  0  0  0  0  0
    5.9167    0.2833    0.0000 C   0  0  0  0  0  0  0  0  0  0  0  0
  2  4  1  0  0  0  0
  3  2  1  0  0  0  0
  4 13  2  0  0  0  0
  4  6  1  0  0  0  0
  5  3  1  0  0  0  0
  6  9  2  0  0  0  0
  7  1  1  0  0  0  0
  8  5  1  0  0  0  0
  9  7  1  0  0  0  0
 10 12  1  0  0  0  0
 11  8  1  0  0  0  0
 12 11  2  0  0  0  0
 13 18  1  0  0  0  0
 14  1  1  0  0  0  0
 15  5  2  0  0  0  0
 16  1  2  0  0  0  0
 17  2  2  0  0  0  0
 18  7  2  0  0  0  0
 19  6  1  0  0  0  0
 20 10  1  0  0  0  0
 21 10  1  0  0  0  0
 22 11  1  0  0  0  0
 23 12  1  0  0  0  0
 23 27  2  0  0  0  0
 24 21  1  0  0  0  0
 24 25  1  0  0  0  0
 25 20  1  0  0  0  0
 26 22  2  0  0  0  0
 27 26  1  0  0  0  0
M  CHG  2   1   1  14  -1
M  END
>  <ID>
7452405

>  <Supplier>
ChemBridge

>  <clogP>
3.488000000000000e+000

>  <RB>
3

>  <tPSA>
8.751000000000002e+001

>  <Hacc>
3

>  <Hdon>
2

>  <LogSw>
-6.793000000000000e+000

>  <Group>
1

>  <Core>
071

$$$$
7452404
 OpenBabel03312015312D

 24 25  0  0  0  0  0  0  0  0999 V2000
    3.6667    1.2958    0.0000 N   0  3  0  0  0  0  0  0  0  0  0  0
    1.1292   -1.1375    0.0000 C   0  0  0  0  0  0  0  0  0  0  0  0
    1.9667   -1.6167    0.0000 N   0  0  0  0  0  0  0  0  0  0  0  0
    2.8292   -1.1375    0.0000 C   0  0  0  0  0  0  0  0  0  0  0  0
    3.6667    0.3000    0.0000 C   0  0  0  0  0  0  0  0  0  0  0  0
    0.2875   -1.6167    0.0000 C   0  0  0  0  0  0  0  0  0  0  0  0
    2.8292   -0.1792    0.0000 C   0  0  0  0  0  0  0  0  0  0  0  0
    4.5042    1.7708    0.0000 O   0  5  0  0  0  0  0  0  0  0  0  0
   -0.1958   -0.7500    0.0000 O   0  0  0  0  0  0  0  0  0  0  0  0
    2.8292    1.7708    0.0000 O   0  0  0  0  0  0  0  0  0  0  0  0
    3.6667   -1.6167    0.0000 C   0  0  0  0  0  0  0  0  0  0  0  0
    1.1500   -0.1792    0.0000 O   0  0  0  0  0  0  0  0  0  0  0  0
    4.5042   -0.1792    0.0000 C   0  0  0  0  0  0  0  0  0  0  0  0
    4.5042   -1.1375    0.0000 C   0  0  0  0  0  0  0  0  0  0  0  0
   -1.1500   -0.7500    0.0000 C   0  0  0  0  0  0  0  0  0  0  0  0
   -3.0958   -0.7167    0.0000 C   0  0  0  0  0  0  0  0  0  0  0  0
    3.6667   -2.5792    0.0000 F   0  0  0  0  0  0  0  0  0  0  0  0
   -4.0500   -0.7167    0.0000 Cl  0  0  0  0  0  0  0  0  0  0  0  0
   -1.6125    0.1208    0.0000 C   0  0  0  0  0  0  0  0  0  0  0  0
   -1.6333   -1.5542    0.0000 C   0  0  0  0  0  0  0  0  0  0  0  0
   -2.5708    0.1208    0.0000 C   0  0  0  0  0  0  0  0  0  0  0  0
   -2.6125   -1.5542    0.0000 C   0  0  0  0  0  0  0  0  0  0  0  0
   -0.5708   -2.0667    0.0000 C   0  0  0  0  0  0  0  0  0  0  0  0
    0.7500   -2.4542    0.0000 C   0  0  0  0  0  0  0  0  0  0  0  0
  2  3  1  0  0  0  0
  3  4  1  0  0  0  0
  4  7  2  0  0  0  0
  5  1  1  0  0  0  0
  6  2  1  0  0  0  0
  7  5  1  0  0  0  0
  8  1  1  0  0  0  0
  9  6  1  0  0  0  0
 10  1  2  0  0  0  0
 11 14  2  0  0  0  0
 11  4  1  0  0  0  0
 12  2  2  0  0  0  0
 13  5  2  0  0  0  0
 14 13  1  0  0  0  0
 15  9  1  0  0  0  0
 16 22  2  0  0  0  0
 17 11  1  0  0  0  0
 18 16  1  0  0  0  0
 19 15  1  0  0  0  0
 20 15  2  0  0  0  0
 21 19  2  0  0  0  0
 21 16  1  0  0  0  0
 22 20  1  0  0  0  0
 23  6  1  0  0  0  0
 24  6  1  0  0  0  0
M  CHG  2   1   1   8  -1
M  END
>  <ID>
7452404

>  <Supplier>
ChemBridge

>  <clogP>
4.077000000000000e+000

>  <RB>
4

>  <tPSA>
8.146999999999999e+001

>  <Hacc>
4

>  <Hdon>
1

>  <LogSw>
-6.019000000000000e+000

>  <Group>
1

>  <Core>
315

$$$$
5723557
 OpenBabel03312015312D

 22 23  0  0  0  0  0  0  0  0999 V2000
   -2.5833    1.3958    0.0000 N   0  0  0  0  0  0  0  0  0  0  0  0
   -2.9958    1.0958    0.0000 C   0  0  0  0  0  0  0  0  0  0  0  0
   -2.1958    1.1000    0.0000 C   0  0  0  0  0  0  0  0  0  0  0  0
   -2.3333    0.6333    0.0000 C   0  0  0  0  0  0  0  0  0  0  0  0
   -2.8333    0.6000    0.0000 S   0  0  0  0  0  0  0  0  0  0  0  0
   -0.4708   -0.3500    0.0000 C   0  0  0  0  0  0  0  0  0  0  0  0
   -2.0458    0.2500    0.0000 C   0  0  0  0  0  0  0  0  0  0  0  0
   -2.5708    1.8708    0.0000 C   0  0  0  0  0  0  0  0  0  0  0  0
   -0.7708    0.0208    0.0000 C   0  0  0  0  0  0  0  0  0  0  0  0
   -3.4708    1.2458    0.0000 S   0  0  0  0  0  0  0  0  0  0  0  0
   -2.9833    2.1125    0.0000 C   0  0  0  0  0  0  0  0  0  0  0  0
   -1.7333    1.2500    0.0000 O   0  0  0  0  0  0  0  0  0  0  0  0
   -1.5625    0.3333    0.0000 C   0  0  0  0  0  0  0  0  0  0  0  0
   -1.2625   -0.0500    0.0000 C   0  0  0  0  0  0  0  0  0  0  0  0
   -3.4000    1.8708    0.0000 O   0  0  0  0  0  0  0  0  0  0  0  0
   -0.8500   -0.6500    0.0000 F   0  0  0  0  0  0  0  0  0  0  0  0
   -0.1833   -0.7167    0.0000 F   0  0  0  0  0  0  0  0  0  0  0  0
   -0.0958   -0.0500    0.0000 F   0  0  0  0  0  0  0  0  0  0  0  0
   -2.9625    2.5958    0.0000 O   0  0  0  0  0  0  0  0  0  0  0  0
   -0.5958    0.4833    0.0000 C   0  0  0  0  0  0  0  0  0  0  0  0
   -0.8958    0.8500    0.0000 C   0  0  0  0  0  0  0  0  0  0  0  0
   -1.3708    0.7708    0.0000 C   0  0  0  0  0  0  0  0  0  0  0  0
  2  1  1  0  0  0  0
  3  1  1  0  0  0  0
  4  3  1  0  0  0  0
  4  5  1  0  0  0  0
  5  2  1  0  0  0  0
  6  9  1  0  0  0  0
  7  4  2  0  0  0  0
  8  1  1  0  0  0  0
  9 14  1  0  0  0  0
 10  2  2  0  0  0  0
 11  8  1  0  0  0  0
 12  3  2  0  0  0  0
 13  7  1  0  0  0  0
 14 13  2  0  0  0  0
 15 11  2  0  0  0  0
 16  6  1  0  0  0  0
 17  6  1  0  0  0  0
 18  6  1  0  0  0  0
 19 11  1  0  0  0  0
 20 21  1  0  0  0  0
 20  9  2  0  0  0  0
 21 22  2  0  0  0  0
 22 13  1  0  0  0  0
M  END
>  <ID>
5723557

>  <Supplier>
ChemBridge

>  <clogP>
2.310000000000000e+000

>  <RB>
3

>  <tPSA>
5.761000000000000e+001

>  <Hacc>
3

>  <Hdon>
1

>  <LogSw>
-3.705000000000000e+000

>  <Group>
1

>  <Core>
001

$$$$
7452409
 OpenBabel03312015312D

 29 31  0  0  0  0  0  0  0  0999 V2000
    8.1167   -0.4792    0.0000 C   0  0  0  0  0  0  0  0  0  0  0  0
    8.8917   -2.2292    0.0000 N   0  0  0  0  0  0  0  0  0  0  0  0
    7.8667   -1.6417    0.0000 C   0  0  0  0  0  0  0  0  0  0  0  0
    9.7667   -1.4292    0.0000 N   0  0  0  0  0  0  0  0  0  0  0  0
    9.2917   -0.3667    0.0000 C   0  0  0  0  0  0  0  0  0  0  0  0
    7.3417    0.4083    0.0000 C   0  0  0  0  0  0  0  0  0  0  0  0
    8.8917   -3.4125    0.0000 C   0  0  0  0  0  0  0  0  0  0  0  0
    4.6542   -1.1667    0.0000 C   0  0  0  0  0  0  0  0  0  0  0  0
    6.7875   -2.1292    0.0000 O   0  0  0  0  0  0  0  0  0  0  0  0
    1.1625   -1.8125    0.0000 C   0  0  0  0  0  0  0  0  0  0  0  0
    6.1917    0.1750    0.0000 C   0  0  0  0  0  0  0  0  0  0  0  0
    3.8792   -0.2792    0.0000 C   0  0  0  0  0  0  0  0  0  0  0  0
    5.8125   -0.9375    0.0000 C   0  0  0  0  0  0  0  0  0  0  0  0
    2.7167   -0.4917    0.0000 O   0  0  0  0  0  0  0  0  0  0  0  0
    0.7667   -2.9250    0.0000 O   0  0  0  0  0  0  0  0  0  0  0  0
    9.9167   -4.0042    0.0000 C   0  0  0  0  0  0  0  0  0  0  0  0
    7.8667   -4.0000    0.0000 C   0  0  0  0  0  0  0  0  0  0  0  0
    4.2625    0.8333    0.0000 C   0  0  0  0  0  0  0  0  0  0  0  0
    2.3167   -1.6000    0.0000 C   0  0  0  0  0  0  0  0  0  0  0  0
    0.3917   -0.9167    0.0000 N   0  0  0  0  0  0  0  0  0  0  0  0
    5.4167    1.0625    0.0000 C   0  0  0  0  0  0  0  0  0  0  0  0
    8.8917   -5.7667    0.0000 C   0  0  0  0  0  0  0  0  0  0  0  0
    7.8667   -5.1792    0.0000 C   0  0  0  0  0  0  0  0  0  0  0  0
    9.9167   -5.1667    0.0000 C   0  0  0  0  0  0  0  0  0  0  0  0
    4.2792   -2.2917    0.0000 O   0  0  0  0  0  0  0  0  0  0  0  0
    8.8917   -6.9417    0.0000 Cl  0  0  0  0  0  0  0  0  0  0  0  0
    9.8917    0.6583    0.0000 C   0  0  0  0  0  0  0  0  0  0  0  0
    5.0667   -3.1792    0.0000 C   0  0  0  0  0  0  0  0  0  0  0  0
    4.6917   -4.3000    0.0000 C   0  0  0  0  0  0  0  0  0  0  0  0
  2  3  1  0  0  0  0
  3  1  1  0  0  0  0
  4  5  2  0  0  0  0
  4  2  1  0  0  0  0
  5  1  1  0  0  0  0
  6  1  2  0  0  0  0
  7  2  1  0  0  0  0
  8 13  1  0  0  0  0
  8 12  2  0  0  0  0
  9  3  2  0  0  0  0
 10 19  1  0  0  0  0
 11  6  1  0  0  0  0
 12 18  1  0  0  0  0
 13 11  2  0  0  0  0
 14 12  1  0  0  0  0
 15 10  2  0  0  0  0
 16  7  1  0  0  0  0
 17  7  2  0  0  0  0
 18 21  2  0  0  0  0
 19 14  1  0  0  0  0
 20 10  1  0  0  0  0
 21 11  1  0  0  0  0
 22 23  2  0  0  0  0
 22 24  1  0  0  0  0
 23 17  1  0  0  0  0
 24 16  2  0  0  0  0
 25  8  1  0  0  0  0
 26 22  1  0  0  0  0
 27  5  1  0  0  0  0
 28 25  1  0  0  0  0
 29 28  1  0  0  0  0
M  END
>  <ID>
7452409

>  <Supplier>
ChemBridge

>  <clogP>
2.658000000000000e+000

>  <RB>
5

>  <tPSA>
9.422000000000000e+001

>  <Hacc>
5

>  <Hdon>
1

>  <LogSw>
-5.526999999999998e+000

>  <Group>
2

>  <Core>
046

$$$$
6112948
 OpenBabel03312015312D

 24 26  0  0  0  0  0  0  0  0999 V2000
   -2.2833   -0.1375    0.0000 N   0  0  0  0  0  0  0  0  0  0  0  0
   -2.8625   -0.3375    0.0000 C   0  0  0  0  0  0  0  0  0  0  0  0
   -2.8625    0.6833    0.0000 C   0  0  0  0  0  0  0  0  0  0  0  0
   -2.2833    0.4833    0.0000 C   0  0  0  0  0  0  0  0  0  0  0  0
   -3.2208    0.1833    0.0000 S   0  0  0  0  0  0  0  0  0  0  0  0
   -3.0833    1.3000    0.0000 C   0  0  0  0  0  0  0  0  0  0  0  0
   -0.1208   -0.1375    0.0000 N   0  0  0  0  0  0  0  0  0  0  0  0
   -0.6625   -0.4542    0.0000 C   0  0  0  0  0  0  0  0  0  0  0  0
   -1.7458   -0.4542    0.0000 C   0  0  0  0  0  0  0  0  0  0  0  0
   -1.2000   -0.1375    0.0000 C   0  0  0  0  0  0  0  0  0  0  0  0
   -2.6625    1.7625    0.0000 C   0  0  0  0  0  0  0  0  0  0  0  0
   -3.0833   -0.9375    0.0000 S   0  0  0  0  0  0  0  0  0  0  0  0
   -2.7458    2.3833    0.0000 S   0  0  0  0  0  0  0  0  0  0  0  0
   -1.7833    0.8833    0.0000 O   0  0  0  0  0  0  0  0  0  0  0  0
    0.4167   -0.4375    0.0000 C   0  0  0  0  0  0  0  0  0  0  0  0
   -0.1208    0.5000    0.0000 C   0  0  0  0  0  0  0  0  0  0  0  0
   -2.1625    2.6208    0.0000 C   0  0  0  0  0  0  0  0  0  0  0  0
   -0.6625   -1.0792    0.0000 O   0  0  0  0  0  0  0  0  0  0  0  0
   -2.0625    1.6458    0.0000 C   0  0  0  0  0  0  0  0  0  0  0  0
   -1.7833    2.2083    0.0000 C   0  0  0  0  0  0  0  0  0  0  0  0
    0.9792   -0.1375    0.0000 C   0  0  0  0  0  0  0  0  0  0  0  0
    0.4167    0.8208    0.0000 C   0  0  0  0  0  0  0  0  0  0  0  0
    0.9792    0.5000    0.0000 C   0  0  3  0  0  0  0  0  0  0  0  0
    1.5167    0.8208    0.0000 C   0  0  0  0  0  0  0  0  0  0  0  0
  2  1  1  0  0  0  0
  3  4  1  0  0  0  0
  4  1  1  0  0  0  0
  5  2  1  0  0  0  0
  5  3  1  0  0  0  0
  6  3  2  0  0  0  0
  7  8  1  0  0  0  0
  8 10  1  0  0  0  0
  9  1  1  0  0  0  0
 10  9  1  0  0  0  0
 11  6  1  0  0  0  0
 12  2  2  0  0  0  0
 13 11  1  0  0  0  0
 14  4  2  0  0  0  0
 15  7  1  0  0  0  0
 16  7  1  0  0  0  0
 17 13  1  0  0  0  0
 18  8  2  0  0  0  0
 19 11  2  0  0  0  0
 20 19  1  0  0  0  0
 20 17  2  0  0  0  0
 21 15  1  0  0  0  0
 22 16  1  0  0  0  0
 23 22  1  0  0  0  0
 23 21  1  0  0  0  0
 24 23  1  0  0  0  0
M  END
>  <ID>
6112948

>  <Supplier>
ChemBridge

>  <clogP>
2.610000000000000e+000

>  <RB>
4

>  <tPSA>
4.061999999999998e+001

>  <Hacc>
2

>  <Hdon>
0

>  <LogSw>
-4.203000000000000e+000

>  <Group>
2

>  <Core>
001

$$$$
7976631
 OpenBabel03312015312D

 36 38  0  0  0  0  0  0  0  0999 V2000
    6.2667    2.7375    0.0000 N   0  0  0  0  0  0  0  0  0  0  0  0
    5.5792    2.4333    0.0000 C   0  0  0  0  0  0  0  0  0  0  0  0
    5.6625    1.6875    0.0000 N   0  0  0  0  0  0  0  0  0  0  0  0
    6.7667    2.1833    0.0000 C   0  0  0  0  0  0  0  0  0  0  0  0
    6.3917    1.5333    0.0000 N   0  0  0  0  0  0  0  0  0  0  0  0
    3.6375    2.8083    0.0000 C   0  0  0  0  0  0  0  0  0  0  0  0
    4.2792    2.4333    0.0000 N   0  0  0  0  0  0  0  0  0  0  0  0
    4.9292    2.8083    0.0000 C   0  0  3  0  0  0  0  0  0  0  0  0
    7.5167    2.2708    0.0000 S   0  0  0  0  0  0  0  0  0  0  0  0
   12.1292    1.4375    0.0000 C   0  0  0  0  0  0  0  0  0  0  0  0
    8.7042    1.7333    0.0000 C   0  0  0  0  0  0  0  0  0  0  0  0
    2.9875    2.4333    0.0000 C   0  0  0  0  0  0  0  0  0  0  0  0
   11.3792    1.3625    0.0000 C   0  0  0  0  0  0  0  0  0  0  0  0
    9.1417    1.1250    0.0000 N   0  0  0  0  0  0  0  0  0  0  0  0
    3.6375    3.5583    0.0000 O   0  0  0  0  0  0  0  0  0  0  0  0
   12.5667    0.8333    0.0000 O   0  0  0  0  0  0  0  0  0  0  0  0
    6.4250    3.4833    0.0000 C   0  0  0  0  0  0  0  0  0  0  0  0
    9.0042    2.4208    0.0000 O   0  0  0  0  0  0  0  0  0  0  0  0
    7.1375    3.7083    0.0000 C   0  0  0  0  0  0  0  0  0  0  0  0
    7.9542    1.6583    0.0000 C   0  0  0  0  0  0  0  0  0  0  0  0
    2.3375    2.8083    0.0000 C   0  0  0  0  0  0  0  0  0  0  0  0
    2.9875    1.6833    0.0000 C   0  0  0  0  0  0  0  0  0  0  0  0
   11.0792    0.6750    0.0000 C   0  0  0  0  0  0  0  0  0  0  0  0
   10.9417    1.9708    0.0000 C   0  0  0  0  0  0  0  0  0  0  0  0
    7.2917    4.4292    0.0000 C   0  0  0  0  0  0  0  0  0  0  0  0
    9.8917    1.2083    0.0000 C   0  0  0  0  0  0  0  0  0  0  0  0
    1.6875    1.6833    0.0000 C   0  0  0  0  0  0  0  0  0  0  0  0
   12.4292    2.1250    0.0000 O   0  0  0  0  0  0  0  0  0  0  0  0
   10.1917    1.8958    0.0000 C   0  0  0  0  0  0  0  0  0  0  0  0
   10.3292    0.5958    0.0000 C   0  0  0  0  0  0  0  0  0  0  0  0
    1.6875    2.4333    0.0000 C   0  0  0  0  0  0  0  0  0  0  0  0
    2.3375    1.3083    0.0000 C   0  0  0  0  0  0  0  0  0  0  0  0
    1.0375    1.3083    0.0000 F   0  0  0  0  0  0  0  0  0  0  0  0
    4.9292    3.5583    0.0000 C   0  0  0  0  0  0  0  0  0  0  0  0
   13.1792    2.2083    0.0000 C   0  0  0  0  0  0  0  0  0  0  0  0
   13.4792    2.8958    0.0000 C   0  0  0  0  0  0  0  0  0  0  0  0
  2  1  1  0  0  0  0
  3  2  2  0  0  0  0
  3  5  1  0  0  0  0
  4  1  1  0  0  0  0
  5  4  2  0  0  0  0
  6  7  1  0  0  0  0
  7  8  1  0  0  0  0
  8  2  1  0  0  0  0
  9  4  1  0  0  0  0
 10 13  1  0  0  0  0
 11 20  1  0  0  0  0
 12  6  1  0  0  0  0
 13 23  1  0  0  0  0
 13 24  2  0  0  0  0
 14 11  1  0  0  0  0
 15  6  2  0  0  0  0
 16 10  2  0  0  0  0
 17  1  1  0  0  0  0
 18 11  2  0  0  0  0
 19 17  1  0  0  0  0
 20  9  1  0  0  0  0
 21 12  1  0  0  0  0
 22 12  2  0  0  0  0
 23 30  2  0  0  0  0
 24 29  1  0  0  0  0
 25 19  2  0  0  0  0
 26 14  1  0  0  0  0
 27 32  2  0  0  0  0
 28 10  1  0  0  0  0
 29 26  2  0  0  0  0
 30 26  1  0  0  0  0
 31 21  2  0  0  0  0
 31 27  1  0  0  0  0
 32 22  1  0  0  0  0
 33 27  1  0  0  0  0
 34  8  1  0  0  0  0
 35 28  1  0  0  0  0
 36 35  1  0  0  0  0
M  END
>  <ID>
7976631

>  <Supplier>
ChemBridge

>  <clogP>
3.219000000000000e+000

>  <RB>
10

>  <tPSA>
1.152100000000000e+002

>  <Hacc>
6

>  <Hdon>
2

>  <LogSw>
-5.677000000000000e+000

>  <Group>
1

>  <Core>
009

$$$$
7976633
 OpenBabel03312015312D

 34 38  0  0  0  0  0  0  0  0999 V2000
    2.6417    1.3208    0.0000 C   0  0  0  0  0  0  0  0  0  0  0  0
    2.5625    2.0708    0.0000 C   0  0  0  0  0  0  0  0  0  0  0  0
    1.9542    1.0125    0.0000 S   0  0  0  0  0  0  0  0  0  0  0  0
    1.8292    2.2208    0.0000 C   0  0  0  0  0  0  0  0  0  0  0  0
    1.4542    1.5708    0.0000 C   0  0  0  0  0  0  0  0  0  0  0  0
    7.1875    0.1958    0.0000 C   0  0  0  0  0  0  0  0  0  0  0  0
    6.5375   -0.1792    0.0000 N   0  0  0  0  0  0  0  0  0  0  0  0
    7.1875    0.9458    0.0000 C   0  0  0  0  0  0  0  0  0  0  0  0
    3.2917    0.9458    0.0000 N   0  0  0  0  0  0  0  0  0  0  0  0
    6.5375    1.3208    0.0000 N   0  0  0  0  0  0  0  0  0  0  0  0
    5.8875    0.9458    0.0000 C   0  0  0  0  0  0  0  0  0  0  0  0
    5.8917    0.1958    0.0000 N   0  0  0  0  0  0  0  0  0  0  0  0
    3.1167    2.5708    0.0000 C   0  0  0  0  0  0  0  0  0  0  0  0
    3.6792    3.0708    0.0000 N   0  0  0  0  0  0  0  0  0  0  0  0
    3.9417    1.3208    0.0000 C   0  0  0  0  0  0  0  0  0  0  0  0
    5.2417    1.3208    0.0000 S   0  0  0  0  0  0  0  0  0  0  0  0
    7.8375   -0.1792    0.0000 C   0  0  0  0  0  0  0  0  0  0  0  0
    7.8375    1.3208    0.0000 C   0  0  0  0  0  0  0  0  0  0  0  0
    3.9417    2.0708    0.0000 O   0  0  0  0  0  0  0  0  0  0  0  0
    4.5917    0.9458    0.0000 C   0  0  0  0  0  0  0  0  0  0  0  0
    1.4542    2.8708    0.0000 C   0  0  0  0  0  0  0  0  0  0  0  0
    0.7042    1.5708    0.0000 C   0  0  0  0  0  0  0  0  0  0  0  0
    7.8375   -0.9292    0.0000 C   0  0  0  0  0  0  0  0  0  0  0  0
    8.4875    0.1958    0.0000 C   0  0  0  0  0  0  0  0  0  0  0  0
    8.4875    0.9458    0.0000 C   0  0  0  0  0  0  0  0  0  0  0  0
    7.8375    2.0708    0.0000 C   0  0  0  0  0  0  0  0  0  0  0  0
    0.7042    2.8708    0.0000 C   0  0  0  0  0  0  0  0  0  0  0  0
    0.3292    2.2208    0.0000 C   0  0  0  0  0  0  0  0  0  0  0  0
    9.1375   -0.1792    0.0000 C   0  0  0  0  0  0  0  0  0  0  0  0
    8.4875   -1.3042    0.0000 C   0  0  0  0  0  0  0  0  0  0  0  0
    8.4875    2.4458    0.0000 C   0  0  0  0  0  0  0  0  0  0  0  0
    9.1375    1.3208    0.0000 C   0  0  0  0  0  0  0  0  0  0  0  0
    9.1375    2.0708    0.0000 C   0  0  0  0  0  0  0  0  0  0  0  0
    9.1375   -0.9292    0.0000 C   0  0  0  0  0  0  0  0  0  0  0  0
  2  1  2  0  0  0  0
  3  1  1  0  0  0  0
  4  2  1  0  0  0  0
  5  3  1  0  0  0  0
  5  4  2  0  0  0  0
  6  7  1  0  0  0  0
  7 12  2  0  0  0  0
  8 10  1  0  0  0  0
  8  6  2  0  0  0  0
  9  1  1  0  0  0  0
 10 11  2  0  0  0  0
 11 16  1  0  0  0  0
 12 11  1  0  0  0  0
 13  2  1  0  0  0  0
 14 13  3  0  0  0  0
 15  9  1  0  0  0  0
 16 20  1  0  0  0  0
 17  6  1  0  0  0  0
 18  8  1  0  0  0  0
 19 15  2  0  0  0  0
 20 15  1  0  0  0  0
 21  4  1  0  0  0  0
 22  5  1  0  0  0  0
 23 17  1  0  0  0  0
 24 17  2  0  0  0  0
 25 18  1  0  0  0  0
 26 18  2  0  0  0  0
 27 21  1  0  0  0  0
 27 28  1  0  0  0  0
 28 22  1  0  0  0  0
 29 24  1  0  0  0  0
 30 23  2  0  0  0  0
 31 26  1  0  0  0  0
 32 25  2  0  0  0  0
 33 31  2  0  0  0  0
 33 32  1  0  0  0  0
 34 29  2  0  0  0  0
 34 30  1  0  0  0  0
M  END
>  <ID>
7976633

>  <Supplier>
ChemBridge

>  <clogP>
4.787000000000000e+000

>  <RB>
6

>  <tPSA>
9.156000000000000e+001

>  <Hacc>
5

>  <Hdon>
1

>  <LogSw>
-7.078000000000000e+000

>  <Group>
1

>  <Core>
129

$$$$
5132340
 OpenBabel03312015312D

 24 26  0  0  0  0  0  0  0  0999 V2000
   -2.1333    0.0833    0.0000 C   0  0  0  0  0  0  0  0  0  0  0  0
   -2.0125   -0.7542    0.0000 C   0  0  0  0  0  0  0  0  0  0  0  0
   -1.5000    0.6708    0.0000 N   0  3  0  0  0  0  0  0  0  0  0  0
   -1.2958   -1.2375    0.0000 C   0  0  0  0  0  0  0  0  0  0  0  0
   -3.3958   -0.5167    0.0000 N   0  0  0  0  0  0  0  0  0  0  0  0
   -2.9708    0.2458    0.0000 C   0  0  0  0  0  0  0  0  0  0  0  0
   -2.7958   -1.1375    0.0000 N   0  0  0  0  0  0  0  0  0  0  0  0
   -0.5333   -0.8542    0.0000 N   0  0  0  0  0  0  0  0  0  0  0  0
   -0.6458    0.5000    0.0000 O   0  5  0  0  0  0  0  0  0  0  0  0
   -1.6333    1.5333    0.0000 O   0  0  0  0  0  0  0  0  0  0  0  0
   -1.3500   -2.1000    0.0000 O   0  0  0  0  0  0  0  0  0  0  0  0
    2.4000   -1.1667    0.0000 C   0  0  0  0  0  0  0  0  0  0  0  0
    0.6792   -1.1667    0.0000 C   0  0  0  0  0  0  0  0  0  0  0  0
    1.9792   -0.4500    0.0000 C   0  0  0  0  0  0  0  0  0  0  0  0
    1.9792   -1.9500    0.0000 C   0  0  0  0  0  0  0  0  0  0  0  0
    3.2500   -1.1667    0.0000 C   0  0  0  0  0  0  0  0  0  0  0  0
    1.1042   -0.4292    0.0000 C   0  0  0  0  0  0  0  0  0  0  0  0
    1.1042   -1.9292    0.0000 C   0  0  0  0  0  0  0  0  0  0  0  0
   -2.9333   -2.0000    0.0000 C   0  0  0  0  0  0  0  0  0  0  0  0
    3.7000   -0.4292    0.0000 C   0  0  0  0  0  0  0  0  0  0  0  0
    3.6792   -1.9042    0.0000 C   0  0  0  0  0  0  0  0  0  0  0  0
    4.5500   -0.4292    0.0000 C   0  0  0  0  0  0  0  0  0  0  0  0
    4.5500   -1.9042    0.0000 C   0  0  0  0  0  0  0  0  0  0  0  0
    5.0000   -1.1667    0.0000 C   0  0  0  0  0  0  0  0  0  0  0  0
  2  1  2  0  0  0  0
  3  1  1  0  0  0  0
  4  2  1  0  0  0  0
  5  6  2  0  0  0  0
  5  7  1  0  0  0  0
  6  1  1  0  0  0  0
  7  2  1  0  0  0  0
  8  4  1  0  0  0  0
  9  3  1  0  0  0  0
 10  3  2  0  0  0  0
 11  4  2  0  0  0  0
 12 15  2  0  0  0  0
 12 14  1  0  0  0  0
 13  8  1  0  0  0  0
 14 17  2  0  0  0  0
 15 18  1  0  0  0  0
 16 12  1  0  0  0  0
 17 13  1  0  0  0  0
 18 13  2  0  0  0  0
 19  7  1  0  0  0  0
 20 16  1  0  0  0  0
 21 16  1  0  0  0  0
 22 20  1  0  0  0  0
 22 24  1  0  0  0  0
 23 21  1  0  0  0  0
 24 23  1  0  0  0  0
M  CHG  2   3   1   9  -1
M  END
>  <ID>
5132340

>  <Supplier>
ChemBridge

>  <clogP>
2.910000000000000e+000

>  <RB>
3

>  <tPSA>
9.006000000000000e+001

>  <Hacc>
5

>  <Hdon>
1

>  <LogSw>
-4.470000000000002e+000

>  <Group>
3

$$$$
7119946
 OpenBabel03312015312D

 26 28  0  0  0  0  0  0  0  0999 V2000
    4.1792    1.8625    0.0000 S   0  0  0  0  0  0  0  0  0  0  0  0
    4.9792    2.3458    0.0000 N   0  0  0  0  0  0  0  0  0  0  0  0
    3.3500    1.3833    0.0000 C   0  0  0  0  0  0  0  0  0  0  0  0
    3.6667    2.6458    0.0000 O   0  0  0  0  0  0  0  0  0  0  0  0
    4.6542    1.0500    0.0000 O   0  0  0  0  0  0  0  0  0  0  0  0
    0.0000    0.0000    0.0000 C   0  0  0  0  0  0  0  0  0  0  0  0
    0.9292    0.0000    0.0000 N   0  0  0  0  0  0  0  0  0  0  0  0
   -0.8208   -0.4542    0.0000 O   0  0  0  0  0  0  0  0  0  0  0  0
    2.5500    1.8333    0.0000 C   0  0  0  0  0  0  0  0  0  0  0  0
    3.3500    0.4500    0.0000 C   0  0  0  0  0  0  0  0  0  0  0  0
    1.7500    0.4500    0.0000 C   0  0  0  0  0  0  0  0  0  0  0  0
    2.5500   -0.0292    0.0000 C   0  0  0  0  0  0  0  0  0  0  0  0
    1.7667    1.3833    0.0000 C   0  0  0  0  0  0  0  0  0  0  0  0
    4.9542    3.2833    0.0000 C   0  0  0  0  0  0  0  0  0  0  0  0
    5.8542    2.0458    0.0000 C   0  0  0  0  0  0  0  0  0  0  0  0
   -1.7125    2.8125    0.0000 C   0  0  0  0  0  0  0  0  0  0  0  0
   -0.0958    0.9500    0.0000 C   0  0  0  0  0  0  0  0  0  0  0  0
   -0.8958    1.4000    0.0000 C   0  0  0  0  0  0  0  0  0  0  0  0
   -0.8958    2.3333    0.0000 C   0  0  0  0  0  0  0  0  0  0  0  0
   -1.7125    3.7458    0.0000 C   0  0  0  0  0  0  0  0  0  0  0  0
   -2.5125    2.3625    0.0000 C   0  0  0  0  0  0  0  0  0  0  0  0
    5.8375    3.5500    0.0000 C   0  0  0  0  0  0  0  0  0  0  0  0
    6.3792    2.8208    0.0000 C   0  0  0  0  0  0  0  0  0  0  0  0
   -3.3125    2.8125    0.0000 C   0  0  0  0  0  0  0  0  0  0  0  0
   -2.5125    4.1875    0.0000 C   0  0  0  0  0  0  0  0  0  0  0  0
   -3.3125    3.7708    0.0000 C   0  0  0  0  0  0  0  0  0  0  0  0
  2  1  1  0  0  0  0
  3  1  1  0  0  0  0
  4  1  2  0  0  0  0
  5  1  2  0  0  0  0
  6  7  1  0  0  0  0
  7 11  1  0  0  0  0
  8  6  2  0  0  0  0
  9  3  1  0  0  0  0
 10  3  2  0  0  0  0
 11 12  2  0  0  0  0
 12 10  1  0  0  0  0
 13  9  2  0  0  0  0
 13 11  1  0  0  0  0
 14  2  1  0  0  0  0
 15  2  1  0  0  0  0
 16 19  1  0  0  0  0
 17  6  1  0  0  0  0
 18 17  1  0  0  0  0
 19 18  1  0  0  0  0
 20 16  2  0  0  0  0
 21 16  1  0  0  0  0
 22 14  1  0  0  0  0
 23 15  1  0  0  0  0
 23 22  1  0  0  0  0
 24 21  2  0  0  0  0
 25 20  1  0  0  0  0
 26 24  1  0  0  0  0
 26 25  2  0  0  0  0
M  END
>  <ID>
7119946

>  <Supplier>
ChemBridge

>  <clogP>
3.920000000000000e+000

>  <RB>
6

>  <tPSA>
6.647999999999998e+001

>  <Hacc>
4

>  <Hdon>
1

>  <LogSw>
-5.263000000000000e+000

>  <Group>
3

>  <Core>
234

$$$$
5132344
 OpenBabel03312015312D

 16 17  0  0  0  0  0  0  0  0999 V2000
   -1.9083    1.7208    0.0000 C   0  0  0  0  0  0  0  0  0  0  0  0
   -2.6333    1.2458    0.0000 N   0  0  0  0  0  0  0  0  0  0  0  0
   -1.1708    1.2500    0.0000 C   0  0  0  0  0  0  0  0  0  0  0  0
   -3.3708    1.7208    0.0000 N   0  0  0  0  0  0  0  0  0  0  0  0
   -1.9083    2.4708    0.0000 C   0  0  0  0  0  0  0  0  0  0  0  0
    0.3500    1.0333    0.0000 N   0  0  0  0  0  0  0  0  0  0  0  0
    1.2375    2.4208    0.0000 C   0  0  0  0  0  0  0  0  0  0  0  0
   -3.3708    2.4708    0.0000 C   0  0  0  0  0  0  0  0  0  0  0  0
    1.2375    1.5458    0.0000 C   0  0  0  0  0  0  0  0  0  0  0  0
    1.8875    2.9333    0.0000 O   0  0  0  0  0  0  0  0  0  0  0  0
   -0.3708    1.5458    0.0000 N   0  0  0  0  0  0  0  0  0  0  0  0
   -1.1708    0.6458    0.0000 O   0  0  0  0  0  0  0  0  0  0  0  0
    0.5875    2.6458    0.0000 C   0  0  0  0  0  0  0  0  0  0  0  0
    1.6792    3.7208    0.0000 C   0  0  0  0  0  0  0  0  0  0  0  0
    1.0375    3.9458    0.0000 C   0  0  0  0  0  0  0  0  0  0  0  0
   -2.6708    0.5500    0.0000 C   0  0  0  0  0  0  0  0  0  0  0  0
  2  1  1  0  0  0  0
  3  1  1  0  0  0  0
  4  2  1  0  0  0  0
  4  8  2  0  0  0  0
  5  1  2  0  0  0  0
  6 11  1  0  0  0  0
  7  9  1  0  0  0  0
  8  5  1  0  0  0  0
  9  6  2  0  0  0  0
 10  7  1  0  0  0  0
 11  3  1  0  0  0  0
 12  3  2  0  0  0  0
 13  7  2  0  0  0  0
 14 10  1  0  0  0  0
 14 15  2  0  0  0  0
 15 13  1  0  0  0  0
 16  2  1  0  0  0  0
M  END
>  <ID>
5132344

>  <Supplier>
ChemBridge

>  <clogP>
4.300000000000000e-001

>  <RB>
3

>  <tPSA>
7.242000000000000e+001

>  <Hacc>
5

>  <Hdon>
1

>  <LogSw>
-1.160000000000000e+000

>  <Group>
3

>  <Core>
216

$$$$
7976639
 OpenBabel03312015312D

 23 25  0  0  0  0  0  0  0  0999 V2000
    0.5042    1.2458    0.0000 C   0  0  0  0  0  0  0  0  0  0  0  0
   -0.1833    1.5458    0.0000 N   0  0  0  0  0  0  0  0  0  0  0  0
   -0.6833    0.9875    0.0000 C   0  0  0  0  0  0  0  0  0  0  0  0
    1.8042    1.2458    0.0000 C   0  0  0  0  0  0  0  0  0  0  0  0
    1.1542    1.6208    0.0000 N   0  0  0  0  0  0  0  0  0  0  0  0
    2.4542    1.6208    0.0000 C   0  0  0  0  0  0  0  0  0  0  0  0
    0.4292    0.4958    0.0000 S   0  0  0  0  0  0  0  0  0  0  0  0
    3.1042    1.2458    0.0000 C   0  0  0  0  0  0  0  0  0  0  0  0
   -1.4250    1.0708    0.0000 C   0  0  0  0  0  0  0  0  0  0  0  0
   -0.3083    0.3375    0.0000 C   0  0  0  0  0  0  0  0  0  0  0  0
    2.4542    2.3708    0.0000 C   0  0  0  0  0  0  0  0  0  0  0  0
    3.7542    1.6208    0.0000 C   0  0  0  0  0  0  0  0  0  0  0  0
    1.8042    0.4958    0.0000 O   0  0  0  0  0  0  0  0  0  0  0  0
   -1.7333    1.7583    0.0000 C   0  0  0  0  0  0  0  0  0  0  0  0
    3.7542    2.3708    0.0000 C   0  0  0  0  0  0  0  0  0  0  0  0
    3.1042    0.4958    0.0000 Cl  0  0  0  0  0  0  0  0  0  0  0  0
    3.1042    2.7458    0.0000 C   0  0  0  0  0  0  0  0  0  0  0  0
   -1.2958    2.3583    0.0000 Cl  0  0  0  0  0  0  0  0  0  0  0  0
    4.4042    2.7458    0.0000 Cl  0  0  0  0  0  0  0  0  0  0  0  0
   -1.8708    0.4583    0.0000 C   0  0  0  0  0  0  0  0  0  0  0  0
   -2.4833    1.8333    0.0000 C   0  0  0  0  0  0  0  0  0  0  0  0
   -2.6125    0.5375    0.0000 C   0  0  0  0  0  0  0  0  0  0  0  0
   -2.9208    1.2250    0.0000 C   0  0  0  0  0  0  0  0  0  0  0  0
  2  1  2  0  0  0  0
  3  2  1  0  0  0  0
  4  5  1  0  0  0  0
  5  1  1  0  0  0  0
  6  4  1  0  0  0  0
  7  1  1  0  0  0  0
  8  6  2  0  0  0  0
  9  3  1  0  0  0  0
 10  7  1  0  0  0  0
 10  3  2  0  0  0  0
 11  6  1  0  0  0  0
 12  8  1  0  0  0  0
 13  4  2  0  0  0  0
 14  9  1  0  0  0  0
 15 17  1  0  0  0  0
 15 12  2  0  0  0  0
 16  8  1  0  0  0  0
 17 11  2  0  0  0  0
 18 14  1  0  0  0  0
 19 15  1  0  0  0  0
 20  9  2  0  0  0  0
 21 14  2  0  0  0  0
 21 23  1  0  0  0  0
 22 20  1  0  0  0  0
 23 22  2  0  0  0  0
M  END
>  <ID>
7976639

>  <Supplier>
ChemBridge

>  <clogP>
5.085000000000000e+000

>  <RB>
3

>  <tPSA>
4.199000000000000e+001

>  <Hacc>
2

>  <Hdon>
1

>  <LogSw>
-6.340000000000000e+000

>  <Group>
1

>  <Core>
227

$$$$
5132349
 OpenBabel03312015312D

 21 22  0  0  0  0  0  0  0  0999 V2000
   -2.0833    0.4458    0.0000 C   0  0  0  0  0  0  0  0  0  0  0  0
   -2.0833   -0.3042    0.0000 C   0  0  0  0  0  0  0  0  0  0  0  0
   -1.3125    0.8333    0.0000 N   0  3  0  0  0  0  0  0  0  0  0  0
   -1.3500   -0.7792    0.0000 C   0  0  0  0  0  0  0  0  0  0  0  0
   -3.5500   -0.3042    0.0000 N   0  0  0  0  0  0  0  0  0  0  0  0
   -3.5500    0.4458    0.0000 C   0  0  0  0  0  0  0  0  0  0  0  0
   -2.8125   -0.7875    0.0000 N   0  0  0  0  0  0  0  0  0  0  0  0
   -0.5500   -0.4875    0.0000 N   0  0  0  0  0  0  0  0  0  0  0  0
   -0.5458    0.4208    0.0000 O   0  5  0  0  0  0  0  0  0  0  0  0
   -1.2000    1.6958    0.0000 O   0  0  0  0  0  0  0  0  0  0  0  0
   -1.3500   -1.3875    0.0000 O   0  0  0  0  0  0  0  0  0  0  0  0
    0.4792    0.2208    0.0000 C   0  0  0  0  0  0  0  0  0  0  0  0
    2.1875    0.2333    0.0000 C   0  0  0  0  0  0  0  0  0  0  0  0
   -2.8500   -1.4792    0.0000 C   0  0  0  0  0  0  0  0  0  0  0  0
    0.8875    0.9500    0.0000 C   0  0  0  0  0  0  0  0  0  0  0  0
    0.9167   -0.5292    0.0000 C   0  0  0  0  0  0  0  0  0  0  0  0
    1.7500    0.9500    0.0000 C   0  0  0  0  0  0  0  0  0  0  0  0
    1.7875   -0.5000    0.0000 C   0  0  0  0  0  0  0  0  0  0  0  0
    3.0667    0.2333    0.0000 O   0  0  0  0  0  0  0  0  0  0  0  0
    3.6042   -0.4042    0.0000 C   0  0  0  0  0  0  0  0  0  0  0  0
    4.4792   -0.1167    0.0000 C   0  0  0  0  0  0  0  0  0  0  0  0
  2  1  2  0  0  0  0
  3  1  1  0  0  0  0
  4  2  1  0  0  0  0
  5  6  2  0  0  0  0
  5  7  1  0  0  0  0
  6  1  1  0  0  0  0
  7  2  1  0  0  0  0
  8  4  1  0  0  0  0
  9  3  1  0  0  0  0
 10  3  2  0  0  0  0
 11  4  2  0  0  0  0
 12  8  1  0  0  0  0
 13 18  2  0  0  0  0
 13 17  1  0  0  0  0
 14  7  1  0  0  0  0
 15 12  1  0  0  0  0
 16 12  2  0  0  0  0
 17 15  2  0  0  0  0
 18 16  1  0  0  0  0
 19 13  1  0  0  0  0
 20 19  1  0  0  0  0
 21 20  1  0  0  0  0
M  CHG  2   3   1   9  -1
M  END
>  <ID>
5132349

>  <Supplier>
ChemBridge

>  <clogP>
7.400000000000000e-001

>  <RB>
2

>  <tPSA>
9.929000000000002e+001

>  <Hacc>
6

>  <Hdon>
1

>  <LogSw>
-2.339000000000000e+000

>  <Group>
3

$$$$
5854562
 OpenBabel03312015312D

 26 29  0  0  0  0  0  0  0  0999 V2000
   -2.2833   -1.7667    0.0000 C   0  0  0  0  0  0  0  0  0  0  0  0
    2.2500    1.7708    0.0000 C   0  0  0  0  0  0  0  0  0  0  0  0
    2.2500    0.8833    0.0000 N   0  0  0  0  0  0  0  0  0  0  0  0
   -2.2833   -0.8875    0.0000 N   0  0  0  0  0  0  0  0  0  0  0  0
   -1.5333   -2.2042    0.0000 C   0  0  0  0  0  0  0  0  0  0  0  0
    1.5000    2.2125    0.0000 C   0  0  0  0  0  0  0  0  0  0  0  0
   -0.0125    0.4458    0.0000 C   0  0  0  0  0  0  0  0  0  0  0  0
   -0.0125   -0.4375    0.0000 C   0  0  0  0  0  0  0  0  0  0  0  0
    3.0042    2.2125    0.0000 C   0  0  0  0  0  0  0  0  0  0  0  0
   -3.0333   -2.2042    0.0000 C   0  0  0  0  0  0  0  0  0  0  0  0
   -0.7625   -1.7500    0.0000 S   0  0  0  0  0  0  0  0  0  0  0  0
    0.7500    1.7708    0.0000 S   0  0  0  0  0  0  0  0  0  0  0  0
    0.7500    0.8833    0.0000 C   0  0  0  0  0  0  0  0  0  0  0  0
   -0.7625   -0.8792    0.0000 C   0  0  0  0  0  0  0  0  0  0  0  0
   -2.2833   -3.5167    0.0000 C   0  0  0  0  0  0  0  0  0  0  0  0
    2.2500    3.5208    0.0000 C   0  0  0  0  0  0  0  0  0  0  0  0
   -3.0333   -0.4542    0.0000 C   0  0  0  0  0  0  0  0  0  0  0  0
    3.0042    0.4458    0.0000 C   0  0  0  0  0  0  0  0  0  0  0  0
   -1.5333   -3.0792    0.0000 C   0  0  0  0  0  0  0  0  0  0  0  0
    1.5000    3.0833    0.0000 C   0  0  0  0  0  0  0  0  0  0  0  0
   -3.0333   -3.0792    0.0000 C   0  0  0  0  0  0  0  0  0  0  0  0
    3.0042    3.0833    0.0000 C   0  0  0  0  0  0  0  0  0  0  0  0
    3.7667    1.7708    0.0000 C   0  0  0  0  0  0  0  0  0  0  0  0
   -3.7958   -1.7667    0.0000 C   0  0  0  0  0  0  0  0  0  0  0  0
    3.7667    0.8833    0.0000 C   0  0  0  0  0  0  0  0  0  0  0  0
   -3.7958   -0.8875    0.0000 C   0  0  0  0  0  0  0  0  0  0  0  0
  2  6  2  0  0  0  0
  3  2  1  0  0  0  0
  4  1  1  0  0  0  0
  5  1  2  0  0  0  0
  6 12  1  0  0  0  0
  7  8  2  0  0  0  0
  8 14  1  0  0  0  0
  9  2  1  0  0  0  0
 10  1  1  0  0  0  0
 11  5  1  0  0  0  0
 12 13  1  0  0  0  0
 13  7  1  0  0  0  0
 14 11  1  0  0  0  0
 15 21  1  0  0  0  0
 16 20  2  0  0  0  0
 17  4  2  0  0  0  0
 17 26  1  0  0  0  0
 18  3  2  0  0  0  0
 18 25  1  0  0  0  0
 19  5  1  0  0  0  0
 19 15  2  0  0  0  0
 20  6  1  0  0  0  0
 21 10  2  0  0  0  0
 22 16  1  0  0  0  0
 22  9  2  0  0  0  0
 23  9  1  0  0  0  0
 24 10  1  0  0  0  0
 25 23  2  0  0  0  0
 26 24  2  0  0  0  0
M  END
>  <ID>
5854562

>  <Supplier>
ChemBridge

>  <clogP>
5.450000000000000e+000

>  <RB>
6

>  <tPSA>
2.578000000000000e+001

>  <Hacc>
2

>  <Hdon>
0

>  <LogSw>
-7.694999999999998e+000

>  <Group>
3

$$$$
7994121
 OpenBabel03312015312D

 21 22  0  0  0  0  0  0  0  0999 V2000
    6.9792    2.6125    0.0000 N   0  0  0  0  0  0  0  0  0  0  0  0
    6.2917    2.3083    0.0000 C   0  0  0  0  0  0  0  0  0  0  0  0
    6.3750    1.5625    0.0000 N   0  0  0  0  0  0  0  0  0  0  0  0
    7.1042    1.4083    0.0000 N   0  0  0  0  0  0  0  0  0  0  0  0
    7.4792    2.0583    0.0000 C   0  0  0  0  0  0  0  0  0  0  0  0
    5.6417    2.6833    0.0000 S   0  0  0  0  0  0  0  0  0  0  0  0
    4.3417    2.6833    0.0000 C   0  0  0  0  0  0  0  0  0  0  0  0
    3.7000    2.3083    0.0000 C   0  0  0  0  0  0  0  0  0  0  0  0
    4.9917    2.3083    0.0000 C   0  0  0  0  0  0  0  0  0  0  0  0
    4.3417    3.4333    0.0000 O   0  0  0  0  0  0  0  0  0  0  0  0
    3.0500    2.6833    0.0000 C   0  0  0  0  0  0  0  0  0  0  0  0
    3.7000    1.5583    0.0000 C   0  0  0  0  0  0  0  0  0  0  0  0
    2.4000    1.5583    0.0000 C   0  0  0  0  0  0  0  0  0  0  0  0
    3.0500    1.1833    0.0000 C   0  0  0  0  0  0  0  0  0  0  0  0
    2.4000    2.3083    0.0000 C   0  0  0  0  0  0  0  0  0  0  0  0
    1.7500    1.1833    0.0000 O   0  0  0  0  0  0  0  0  0  0  0  0
    8.2292    2.1333    0.0000 C   0  0  0  0  0  0  0  0  0  0  0  0
    1.1000    1.5583    0.0000 C   0  0  0  0  0  0  0  0  0  0  0  0
    8.6667    1.5333    0.0000 C   0  0  0  0  0  0  0  0  0  0  0  0
    9.4167    1.6083    0.0000 C   0  0  0  0  0  0  0  0  0  0  0  0
    9.8542    1.0000    0.0000 C   0  0  0  0  0  0  0  0  0  0  0  0
  2  1  1  0  0  0  0
  3  2  2  0  0  0  0
  3  4  1  0  0  0  0
  4  5  2  0  0  0  0
  5  1  1  0  0  0  0
  6  2  1  0  0  0  0
  7  9  1  0  0  0  0
  8  7  1  0  0  0  0
  9  6  1  0  0  0  0
 10  7  2  0  0  0  0
 11  8  1  0  0  0  0
 12  8  2  0  0  0  0
 13 14  2  0  0  0  0
 14 12  1  0  0  0  0
 15 11  2  0  0  0  0
 15 13  1  0  0  0  0
 16 13  1  0  0  0  0
 17  5  1  0  0  0  0
 18 16  1  0  0  0  0
 19 17  1  0  0  0  0
 20 19  1  0  0  0  0
 21 20  1  0  0  0  0
M  END
>  <ID>
7994121

>  <Supplier>
ChemBridge

>  <clogP>
2.820000000000000e+000

>  <RB>
5

>  <tPSA>
6.787000000000001e+001

>  <Hacc>
4

>  <Hdon>
1

>  <LogSw>
-3.835999999999999e+000

>  <Group>
2

>  <Core>
030

$$$$
6164058
 OpenBabel03312015312D

 32 33  0  0  0  0  0  0  0  0999 V2000
   -1.1000   -0.4042    0.0000 C   0  0  0  0  0  0  0  0  0  0  0  0
   -2.1458   -1.0500    0.0000 C   0  0  0  0  0  0  0  0  0  0  0  0
   -1.8125   -0.4292    0.0000 N   0  0  0  0  0  0  0  0  0  0  0  0
   -2.8625   -1.0875    0.0000 C   0  0  0  0  0  0  0  0  0  0  0  0
   -4.2958   -1.1000    0.0000 C   0  0  0  0  0  0  0  0  0  0  0  0
   -0.7500   -1.0042    0.0000 C   0  0  0  0  0  0  0  0  0  0  0  0
   -3.9333   -0.4542    0.0000 C   0  0  0  0  0  0  0  0  0  0  0  0
   -3.9125   -1.7042    0.0000 C   0  0  0  0  0  0  0  0  0  0  0  0
   -0.7833    0.2125    0.0000 C   0  0  0  0  0  0  0  0  0  0  0  0
   -3.2125   -0.4667    0.0000 C   0  0  0  0  0  0  0  0  0  0  0  0
   -3.2125   -1.7042    0.0000 C   0  0  0  0  0  0  0  0  0  0  0  0
    0.3000   -2.8167    0.0000 C   0  0  0  0  0  0  0  0  0  0  0  0
   -1.7708   -1.6542    0.0000 O   0  0  0  0  0  0  0  0  0  0  0  0
   -0.0500   -2.2042    0.0000 C   0  0  0  0  0  0  0  0  0  0  0  0
   -1.0708   -1.6375    0.0000 O   0  0  0  0  0  0  0  0  0  0  0  0
    1.0042   -2.8292    0.0000 O   0  0  0  0  0  0  0  0  0  0  0  0
   -0.0500   -1.0042    0.0000 N   0  0  0  0  0  0  0  0  0  0  0  0
   -0.0958    0.2458    0.0000 C   0  0  0  0  0  0  0  0  0  0  0  0
   -4.9958   -1.1167    0.0000 O   0  0  0  0  0  0  0  0  0  0  0  0
    0.3000   -1.6042    0.0000 C   0  0  0  0  0  0  0  0  0  0  0  0
   -4.2708    0.1500    0.0000 O   0  0  0  0  0  0  0  0  0  0  0  0
   -4.2333   -2.3292    0.0000 O   0  0  0  0  0  0  0  0  0  0  0  0
    1.3292    0.2708    0.0000 C   0  0  0  0  0  0  0  0  0  0  0  0
   -0.0458   -3.4500    0.0000 O   0  0  0  0  0  0  0  0  0  0  0  0
    2.0292    0.3000    0.0000 Br  0  0  0  0  0  0  0  0  0  0  0  0
    0.2375    0.8500    0.0000 C   0  0  0  0  0  0  0  0  0  0  0  0
    0.2875   -0.3542    0.0000 C   0  0  0  0  0  0  0  0  0  0  0  0
    0.9875   -0.3542    0.0000 C   0  0  0  0  0  0  0  0  0  0  0  0
    0.9375    0.8625    0.0000 C   0  0  0  0  0  0  0  0  0  0  0  0
   -5.3208   -1.7292    0.0000 C   0  0  0  0  0  0  0  0  0  0  0  0
   -4.9708    0.1625    0.0000 C   0  0  0  0  0  0  0  0  0  0  0  0
   -3.8500   -2.9167    0.0000 C   0  0  0  0  0  0  0  0  0  0  0  0
  2  3  1  0  0  0  0
  3  1  1  0  0  0  0
  4  2  1  0  0  0  0
  5  8  2  0  0  0  0
  5  7  1  0  0  0  0
  6  1  1  0  0  0  0
  7 10  2  0  0  0  0
  8 11  1  0  0  0  0
  9  1  2  0  0  0  0
 10  4  1  0  0  0  0
 11  4  2  0  0  0  0
 12 14  1  0  0  0  0
 13  2  2  0  0  0  0
 14 20  1  0  0  0  0
 15  6  2  0  0  0  0
 16 12  2  0  0  0  0
 17  6  1  0  0  0  0
 18  9  1  0  0  0  0
 19  5  1  0  0  0  0
 20 17  1  0  0  0  0
 21  7  1  0  0  0  0
 22  8  1  0  0  0  0
 23 28  2  0  0  0  0
 23 29  1  0  0  0  0
 24 12  1  0  0  0  0
 25 23  1  0  0  0  0
 26 18  1  0  0  0  0
 27 18  2  0  0  0  0
 28 27  1  0  0  0  0
 29 26  2  0  0  0  0
 30 19  1  0  0  0  0
 31 21  1  0  0  0  0
 32 22  1  0  0  0  0
M  END
>  <ID>
6164058

>  <Supplier>
ChemBridge

>  <clogP>
2.730000000000000e+000

>  <RB>
7

>  <tPSA>
1.231900000000000e+002

>  <Hacc>
7

>  <Hdon>
3

>  <LogSw>
-5.229000000000000e+000

>  <Group>
1

>  <Core>
008

$$$$
6144169
 OpenBabel03312015312D

 24 27  0  0  0  0  0  0  0  0999 V2000
   -0.1958    1.8333    0.0000 S   0  0  0  0  0  0  0  0  0  0  0  0
    0.0292    2.2333    0.0000 N   0  0  0  0  0  0  0  0  0  0  0  0
    0.1542    1.6708    0.0000 C   0  0  0  0  0  0  0  0  0  0  0  0
   -0.6458    3.1458    0.0000 C   0  0  3  0  0  0  0  0  0  0  0  0
   -0.8833    2.3833    0.0000 C   0  0  3  0  0  0  0  0  0  0  0  0
   -0.5500    2.6708    0.0000 C   0  0  3  0  0  0  0  0  0  0  0  0
   -0.2125    2.6333    0.0000 C   0  0  3  0  0  0  0  0  0  0  0  0
    0.1875    1.2708    0.0000 C   0  0  0  0  0  0  0  0  0  0  0  0
   -0.4125    1.4125    0.0000 O   0  0  0  0  0  0  0  0  0  0  0  0
   -0.6125    2.0500    0.0000 O   0  0  0  0  0  0  0  0  0  0  0  0
   -0.9958    2.7708    0.0000 C   0  0  3  0  0  0  0  0  0  0  0  0
   -1.4458    2.9958    0.0000 C   0  0  3  0  0  0  0  0  0  0  0  0
    0.4875    1.8958    0.0000 C   0  0  0  0  0  0  0  0  0  0  0  0
   -0.9500    2.9958    0.0000 C   0  0  0  0  0  0  0  0  0  0  0  0
   -0.7958    2.8500    0.0000 C   0  0  0  0  0  0  0  0  0  0  0  0
   -1.0625    3.2833    0.0000 C   0  0  0  0  0  0  0  0  0  0  0  0
   -1.3333    2.5208    0.0000 C   0  0  0  0  0  0  0  0  0  0  0  0
    0.5500    1.0958    0.0000 C   0  0  0  0  0  0  0  0  0  0  0  0
   -1.1333    2.9708    0.0000 C   0  0  0  0  0  0  0  0  0  0  0  0
    0.8667    1.7000    0.0000 C   0  0  0  0  0  0  0  0  0  0  0  0
    0.8792    1.3125    0.0000 C   0  0  0  0  0  0  0  0  0  0  0  0
    0.0042    3.0333    0.0000 C   0  0  0  0  0  0  0  0  0  0  0  0
   -0.1458    1.0500    0.0000 C   0  0  0  0  0  0  0  0  0  0  0  0
    1.2167    1.1458    0.0000 C   0  0  0  0  0  0  0  0  0  0  0  0
  2  1  1  0  0  0  0
  3  1  1  0  0  0  0
  4  6  1  0  0  0  0
  5  6  1  0  0  0  0
  6  7  1  0  0  0  0
  7  2  1  0  0  0  0
  8  3  1  0  0  0  0
  9  1  2  0  0  0  0
 10  1  2  0  0  0  0
 11 15  1  0  0  0  0
 11 19  1  0  0  0  0
 12 17  1  0  0  0  0
 13  3  2  0  0  0  0
 14  4  1  0  0  0  0
 14 11  1  0  0  0  0
 15  5  1  0  0  0  0
 16  4  1  0  0  0  0
 16 12  1  0  0  0  0
 17  5  1  0  0  0  0
 18  8  2  0  0  0  0
 18 21  1  0  0  0  0
 19 12  1  0  0  0  0
 20 13  1  0  0  0  0
 21 20  2  0  0  0  0
 22  7  1  0  0  0  0
 23  8  1  0  0  0  0
 24 21  1  0  0  0  0
M  END
>  <ID>
6144169

>  <Supplier>
ChemBridge

>  <clogP>
5.500000000000000e+000

>  <RB>
3

>  <tPSA>
4.616999999999997e+001

>  <Hacc>
3

>  <Hdon>
1

>  <LogSw>
-6.431000000000003e+000

>  <Group>
2

$$$$
6144168
 OpenBabel03312015312D

 30 33  0  0  0  0  0  0  0  0999 V2000
   -1.5708    1.4958    0.0000 C   0  0  0  0  0  0  0  0  0  0  0  0
   -0.6125   -0.0042    0.0000 S   0  0  0  0  0  0  0  0  0  0  0  0
   -1.9708    1.5125    0.0000 C   0  0  0  0  0  0  0  0  0  0  0  0
   -1.3333    1.8333    0.0000 C   0  0  0  0  0  0  0  0  0  0  0  0
   -1.4500    1.1125    0.0000 C   0  0  0  0  0  0  0  0  0  0  0  0
   -2.1125    1.1125    0.0000 O   0  0  0  0  0  0  0  0  0  0  0  0
   -1.7958    0.8708    0.0000 C   0  0  0  0  0  0  0  0  0  0  0  0
   -0.6708    0.3958    0.0000 N   0  0  0  0  0  0  0  0  0  0  0  0
   -0.5500   -0.4292    0.0000 C   0  0  0  0  0  0  0  0  0  0  0  0
   -0.9333    1.7708    0.0000 O   0  0  0  0  0  0  0  0  0  0  0  0
   -1.0125   -0.0667    0.0000 O   0  0  0  0  0  0  0  0  0  0  0  0
   -0.1958    0.0500    0.0000 O   0  0  0  0  0  0  0  0  0  0  0  0
   -0.1708   -0.5667    0.0000 C   0  0  0  0  0  0  0  0  0  0  0  0
   -1.0958    0.9500    0.0000 C   0  0  0  0  0  0  0  0  0  0  0  0
   -1.4958    2.1958    0.0000 O   0  0  0  0  0  0  0  0  0  0  0  0
   -1.0500    0.5500    0.0000 C   0  0  0  0  0  0  0  0  0  0  0  0
   -0.0958   -0.9667    0.0000 C   0  0  0  0  0  0  0  0  0  0  0  0
   -1.7500    0.4708    0.0000 C   0  0  0  0  0  0  0  0  0  0  0  0
   -0.8500   -0.6667    0.0000 C   0  0  0  0  0  0  0  0  0  0  0  0
   -0.4125   -1.2292    0.0000 C   0  0  0  0  0  0  0  0  0  0  0  0
   -0.7958   -1.0667    0.0000 C   0  0  0  0  0  0  0  0  0  0  0  0
   -1.3708    0.3125    0.0000 C   0  0  0  0  0  0  0  0  0  0  0  0
   -2.2125    1.8500    0.0000 C   0  0  0  0  0  0  0  0  0  0  0  0
   -0.7708    1.4125    0.0000 C   0  0  0  0  0  0  0  0  0  0  0  0
    0.3000   -1.1292    0.0000 C   0  0  0  0  0  0  0  0  0  0  0  0
   -0.3708   -1.6292    0.0000 C   0  0  0  0  0  0  0  0  0  0  0  0
   -1.0333    1.0958    0.0000 C   0  0  0  0  0  0  0  0  0  0  0  0
   -0.3708    1.3500    0.0000 C   0  0  0  0  0  0  0  0  0  0  0  0
    0.3500   -1.5375    0.0000 C   0  0  0  0  0  0  0  0  0  0  0  0
    0.0042   -1.7875    0.0000 C   0  0  0  0  0  0  0  0  0  0  0  0
  2  8  1  0  0  0  0
  3  1  2  0  0  0  0
  4  1  1  0  0  0  0
  5  1  1  0  0  0  0
  6  3  1  0  0  0  0
  7  5  1  0  0  0  0
  7  6  1  0  0  0  0
  8 16  1  0  0  0  0
  9  2  1  0  0  0  0
 10  4  1  0  0  0  0
 11  2  2  0  0  0  0
 12  2  2  0  0  0  0
 13  9  1  0  0  0  0
 14  5  2  0  0  0  0
 15  4  2  0  0  0  0
 16 14  1  0  0  0  0
 17 13  2  0  0  0  0
 18  7  2  0  0  0  0
 19  9  2  0  0  0  0
 20 21  2  0  0  0  0
 20 17  1  0  0  0  0
 21 19  1  0  0  0  0
 22 16  2  0  0  0  0
 22 18  1  0  0  0  0
 23  3  1  0  0  0  0
 24 10  1  0  0  0  0
 25 17  1  0  0  0  0
 26 20  1  0  0  0  0
 27 24  1  0  0  0  0
 28 24  1  0  0  0  0
 29 25  2  0  0  0  0
 30 26  2  0  0  0  0
 30 29  1  0  0  0  0
M  END
>  <ID>
6144168

>  <Supplier>
ChemBridge

>  <clogP>
5.880000000000000e+000

>  <RB>
4

>  <tPSA>
8.561000000000000e+001

>  <Hacc>
5

>  <Hdon>
1

>  <LogSw>
-8.419000000000002e+000

>  <Group>
3

>  <Core>
516

$$$$
6212509
 OpenBabel03312015312D

 24 26  0  0  0  0  0  0  0  0999 V2000
   -1.5208   -1.0167    0.0000 C   0  0  0  0  0  0  0  0  0  0  0  0
   -1.4833   -1.9167    0.0000 C   0  0  3  0  0  0  0  0  0  0  0  0
   -0.6000   -2.1792    0.0000 N   0  0  0  0  0  0  0  0  0  0  0  0
   -0.6625   -0.7000    0.0000 C   0  0  0  0  0  0  0  0  0  0  0  0
   -0.1000   -1.4000    0.0000 C   0  0  0  0  0  0  0  0  0  0  0  0
   -2.3000   -0.5000    0.0000 C   0  0  0  0  0  0  0  0  0  0  0  0
   -2.3458   -2.2375    0.0000 C   0  0  0  0  0  0  0  0  0  0  0  0
   -2.2458    0.4458    0.0000 C   0  0  0  0  0  0  0  0  0  0  0  0
    0.8375   -1.3375    0.0000 O   0  0  0  0  0  0  0  0  0  0  0  0
   -3.1458   -0.9000    0.0000 O   0  0  0  0  0  0  0  0  0  0  0  0
   -0.3833    0.2000    0.0000 O   0  0  0  0  0  0  0  0  0  0  0  0
   -2.5000   -3.1542    0.0000 C   0  0  0  0  0  0  0  0  0  0  0  0
   -3.0458   -1.6542    0.0000 C   0  0  0  0  0  0  0  0  0  0  0  0
   -1.4000    0.8458    0.0000 C   0  0  0  0  0  0  0  0  0  0  0  0
   -3.0000    0.9625    0.0000 C   0  0  0  0  0  0  0  0  0  0  0  0
   -2.1000    2.2833    0.0000 C   0  0  0  0  0  0  0  0  0  0  0  0
   -4.0625   -2.8792    0.0000 C   0  0  0  0  0  0  0  0  0  0  0  0
   -1.3208    1.7625    0.0000 C   0  0  0  0  0  0  0  0  0  0  0  0
   -2.9458    1.8833    0.0000 C   0  0  0  0  0  0  0  0  0  0  0  0
   -3.3625   -3.4792    0.0000 C   0  0  0  0  0  0  0  0  0  0  0  0
   -3.9208   -2.0000    0.0000 C   0  0  0  0  0  0  0  0  0  0  0  0
   -2.0458    3.2083    0.0000 Br  0  0  0  0  0  0  0  0  0  0  0  0
   -4.9333   -3.1667    0.0000 O   0  0  0  0  0  0  0  0  0  0  0  0
   -5.6125   -2.5667    0.0000 C   0  0  0  0  0  0  0  0  0  0  0  0
  2  1  1  0  0  0  0
  3  2  1  0  0  0  0
  3  5  1  0  0  0  0
  4  1  2  0  0  0  0
  5  4  1  0  0  0  0
  6  1  1  0  0  0  0
  7  2  1  0  0  0  0
  8  6  1  0  0  0  0
  9  5  2  0  0  0  0
 10  6  2  0  0  0  0
 11  4  1  0  0  0  0
 12  7  1  0  0  0  0
 13  7  2  0  0  0  0
 14  8  2  0  0  0  0
 15  8  1  0  0  0  0
 16 19  1  0  0  0  0
 17 21  2  0  0  0  0
 17 20  1  0  0  0  0
 18 14  1  0  0  0  0
 18 16  2  0  0  0  0
 19 15  2  0  0  0  0
 20 12  2  0  0  0  0
 21 13  1  0  0  0  0
 22 16  1  0  0  0  0
 23 17  1  0  0  0  0
 24 23  1  0  0  0  0
M  END
>  <ID>
6212509

>  <Supplier>
ChemBridge

>  <clogP>
3.370000000000000e+000

>  <RB>
3

>  <tPSA>
7.563000000000000e+001

>  <Hacc>
4

>  <Hdon>
2

>  <LogSw>
-4.908000000000000e+000

>  <Group>
1

>  <Core>
095

$$$$
6212508
 OpenBabel03312015312D

 17 18  0  0  0  0  0  0  0  0999 V2000
   -2.9625    0.6333    0.0000 C   0  0  0  0  0  0  0  0  0  0  0  0
   -3.8333   -0.5667    0.0000 C   0  0  0  0  0  0  0  0  0  0  0  0
   -5.2500    1.3500    0.0000 N   0  0  0  0  0  0  0  0  0  0  0  0
   -5.2458   -0.1042    0.0000 N   0  0  0  0  0  0  0  0  0  0  0  0
   -1.4458    0.6500    0.0000 N   0  0  0  0  0  0  0  0  0  0  0  0
   -3.8000    1.8125    0.0000 C   0  0  0  0  0  0  0  0  0  0  0  0
    3.0042   -1.9542    0.0000 C   0  0  0  0  0  0  0  0  0  0  0  0
    1.5292   -1.9542    0.0000 C   0  0  0  0  0  0  0  0  0  0  0  0
   -0.7000   -0.6375    0.0000 N   0  0  0  0  0  0  0  0  0  0  0  0
   -3.3500   -2.0000    0.0000 O   0  0  0  0  0  0  0  0  0  0  0  0
    3.7542   -0.6375    0.0000 C   0  0  0  0  0  0  0  0  0  0  0  0
    0.7792   -0.6375    0.0000 C   0  0  0  0  0  0  0  0  0  0  0  0
    3.0042    0.6458    0.0000 C   0  0  0  0  0  0  0  0  0  0  0  0
    3.7875   -3.2375    0.0000 Cl  0  0  0  0  0  0  0  0  0  0  0  0
    5.2500   -0.6375    0.0000 Br  0  0  0  0  0  0  0  0  0  0  0  0
    1.5292    0.6458    0.0000 C   0  0  0  0  0  0  0  0  0  0  0  0
   -3.3125    3.2458    0.0000 C   0  0  0  0  0  0  0  0  0  0  0  0
  2  1  1  0  0  0  0
  3  6  2  0  0  0  0
  4  2  1  0  0  0  0
  4  3  1  0  0  0  0
  5  1  2  0  0  0  0
  6  1  1  0  0  0  0
  7  8  1  0  0  0  0
  8 12  2  0  0  0  0
  9  5  1  0  0  0  0
 10  2  2  0  0  0  0
 11 13  1  0  0  0  0
 11  7  2  0  0  0  0
 12  9  1  0  0  0  0
 13 16  2  0  0  0  0
 14  7  1  0  0  0  0
 15 11  1  0  0  0  0
 16 12  1  0  0  0  0
 17  6  1  0  0  0  0
M  END
>  <ID>
6212508

>  <Supplier>
ChemBridge

>  <clogP>
4.220000000000000e+000

>  <RB>
2

>  <tPSA>
6.584999999999997e+001

>  <Hacc>
3

>  <Hdon>
2

>  <LogSw>
-5.105000000000000e+000

>  <Group>
1

>  <Core>
381

$$$$
6144166
 OpenBabel03312015312D

 19 20  0  0  0  0  0  0  0  0999 V2000
    1.9542    0.5958    0.0000 C   0  0  0  0  0  0  0  0  0  0  0  0
   -0.8958    0.5958    0.0000 C   0  0  0  0  0  0  0  0  0  0  0  0
    2.6667    0.1875    0.0000 N   0  0  0  0  0  0  0  0  0  0  0  0
   -0.1750    0.1750    0.0000 C   0  0  0  0  0  0  0  0  0  0  0  0
    0.5417    0.5875    0.0000 O   0  0  0  0  0  0  0  0  0  0  0  0
    1.9500    1.4125    0.0000 O   0  0  0  0  0  0  0  0  0  0  0  0
   -1.6000    0.1750    0.0000 C   0  0  0  0  0  0  0  0  0  0  0  0
    1.2500    0.1750    0.0000 C   0  0  0  0  0  0  0  0  0  0  0  0
    3.3792   -0.2167    0.0000 C   0  0  0  0  0  0  0  0  0  0  0  0
   -0.8958   -1.0625    0.0000 C   0  0  0  0  0  0  0  0  0  0  0  0
   -0.8958    1.4208    0.0000 C   0  0  0  0  0  0  0  0  0  0  0  0
   -0.1750   -0.6500    0.0000 C   0  0  0  0  0  0  0  0  0  0  0  0
   -1.6000   -0.6500    0.0000 C   0  0  0  0  0  0  0  0  0  0  0  0
   -2.3208    0.5875    0.0000 C   0  0  0  0  0  0  0  0  0  0  0  0
    4.0917    0.1958    0.0000 C   0  0  0  0  0  0  0  0  0  0  0  0
    3.3875   -1.0375    0.0000 C   0  0  0  0  0  0  0  0  0  0  0  0
    4.0917   -1.4417    0.0000 C   0  0  0  0  0  0  0  0  0  0  0  0
    4.8042   -0.2042    0.0000 C   0  0  0  0  0  0  0  0  0  0  0  0
    4.8042   -1.0292    0.0000 C   0  0  0  0  0  0  0  0  0  0  0  0
  2  4  1  0  0  0  0
  3  1  1  0  0  0  0
  4  5  1  0  0  0  0
  5  8  1  0  0  0  0
  6  1  2  0  0  0  0
  7  2  2  0  0  0  0
  7 13  1  0  0  0  0
  8  1  1  0  0  0  0
  9  3  1  0  0  0  0
 10 12  1  0  0  0  0
 11  2  1  0  0  0  0
 12  4  2  0  0  0  0
 13 10  2  0  0  0  0
 14  7  1  0  0  0  0
 15  9  1  0  0  0  0
 16  9  1  0  0  0  0
 17 16  1  0  0  0  0
 18 15  1  0  0  0  0
 19 17  1  0  0  0  0
 19 18  1  0  0  0  0
M  END
>  <ID>
6144166

>  <Supplier>
ChemBridge

>  <clogP>
3.800000000000000e+000

>  <RB>
4

>  <tPSA>
3.833000000000000e+001

>  <Hacc>
2

>  <Hdon>
1

>  <LogSw>
-4.351999999999999e+000

>  <Group>
3

>  <Core>
315

$$$$
7568416
 OpenBabel03312015312D

 21 22  0  0  0  0  0  0  0  0999 V2000
    3.4292   -0.3042    0.0000 C   0  0  0  0  0  0  0  0  0  0  0  0
    4.1167   -0.6125    0.0000 N   0  0  0  0  0  0  0  0  0  0  0  0
    3.5125    0.4375    0.0000 N   0  0  0  0  0  0  0  0  0  0  0  0
    4.2417    0.5958    0.0000 N   0  0  0  0  0  0  0  0  0  0  0  0
    4.6167   -0.0542    0.0000 N   0  0  0  0  0  0  0  0  0  0  0  0
    2.7792   -0.6792    0.0000 N   0  0  0  0  0  0  0  0  0  0  0  0
    2.1292   -0.3042    0.0000 C   0  0  0  0  0  0  0  0  0  0  0  0
    0.1792   -1.4292    0.0000 C   0  0  0  0  0  0  0  0  0  0  0  0
    0.1875   -0.6792    0.0000 C   0  0  0  0  0  0  0  0  0  0  0  0
    0.8292   -0.3042    0.0000 O   0  0  0  0  0  0  0  0  0  0  0  0
   -0.4708   -1.8042    0.0000 C   0  0  0  0  0  0  0  0  0  0  0  0
    2.1292    0.4458    0.0000 O   0  0  0  0  0  0  0  0  0  0  0  0
   -0.4625   -0.3042    0.0000 C   0  0  0  0  0  0  0  0  0  0  0  0
    1.4792   -0.6792    0.0000 C   0  0  0  0  0  0  0  0  0  0  0  0
   -1.1125   -1.4292    0.0000 C   0  0  0  0  0  0  0  0  0  0  0  0
    5.3667   -0.1375    0.0000 C   0  0  0  0  0  0  0  0  0  0  0  0
   -1.1125   -0.6792    0.0000 C   0  0  0  0  0  0  0  0  0  0  0  0
    0.8292   -1.8042    0.0000 C   0  0  0  0  0  0  0  0  0  0  0  0
   -1.7625   -1.8042    0.0000 C   0  0  0  0  0  0  0  0  0  0  0  0
    5.6667   -0.8167    0.0000 C   0  0  0  0  0  0  0  0  0  0  0  0
    6.4167   -0.9000    0.0000 C   0  0  0  0  0  0  0  0  0  0  0  0
  2  1  2  0  0  0  0
  3  1  1  0  0  0  0
  4  3  2  0  0  0  0
  5  2  1  0  0  0  0
  5  4  1  0  0  0  0
  6  1  1  0  0  0  0
  7  6  1  0  0  0  0
  8  9  2  0  0  0  0
  9 10  1  0  0  0  0
 10 14  1  0  0  0  0
 11  8  1  0  0  0  0
 12  7  2  0  0  0  0
 13  9  1  0  0  0  0
 14  7  1  0  0  0  0
 15 17  1  0  0  0  0
 15 11  2  0  0  0  0
 16  5  1  0  0  0  0
 17 13  2  0  0  0  0
 18  8  1  0  0  0  0
 19 15  1  0  0  0  0
 20 16  1  0  0  0  0
 21 20  1  0  0  0  0
M  END
>  <ID>
7568416

>  <Supplier>
ChemBridge

>  <clogP>
2.174000000000000e+000

>  <RB>
4

>  <tPSA>
8.193000000000001e+001

>  <Hacc>
5

>  <Hdon>
1

>  <LogSw>
-3.392000000000000e+000

>  <Group>
3

>  <Core>
290

$$$$
6724185
 OpenBabel03312015312D

 30 33  0  0  0  0  0  0  0  0999 V2000
    9.7375    4.1917    0.0000 N   0  0  0  0  0  0  0  0  0  0  0  0
   10.8917    4.9292    0.0000 C   0  0  0  0  0  0  0  0  0  0  0  0
    8.4667    4.8542    0.0000 C   0  0  0  0  0  0  0  0  0  0  0  0
   10.8167    6.3542    0.0000 N   0  0  0  0  0  0  0  0  0  0  0  0
    8.4292    6.2542    0.0000 C   0  0  0  0  0  0  0  0  0  0  0  0
    9.6042    6.9917    0.0000 C   0  0  0  0  0  0  0  0  0  0  0  0
   12.1375    4.2542    0.0000 C   0  0  0  0  0  0  0  0  0  0  0  0
    7.6167    4.3042    0.0000 O   0  0  0  0  0  0  0  0  0  0  0  0
   12.1792    2.8958    0.0000 C   0  0  0  0  0  0  0  0  0  0  0  0
   13.3500    5.0042    0.0000 C   0  0  0  0  0  0  0  0  0  0  0  0
    9.8292    2.8583    0.0000 C   0  0  0  0  0  0  0  0  0  0  0  0
   14.6167    2.9125    0.0000 C   0  0  0  0  0  0  0  0  0  0  0  0
    7.1667    6.9167    0.0000 C   0  0  0  0  0  0  0  0  0  0  0  0
    3.0625    1.9125    0.0000 C   0  0  0  0  0  0  0  0  0  0  0  0
   14.6167    4.3292    0.0000 C   0  0  0  0  0  0  0  0  0  0  0  0
   13.4417    2.1958    0.0000 C   0  0  0  0  0  0  0  0  0  0  0  0
    0.8875    0.6458    0.0000 C   0  0  0  0  0  0  0  0  0  0  0  0
   15.6000    2.3458    0.0000 Br  0  0  0  0  0  0  0  0  0  0  0  0
    3.0625    0.6458    0.0000 C   0  0  0  0  0  0  0  0  0  0  0  0
    1.9667    2.5583    0.0000 C   0  0  0  0  0  0  0  0  0  0  0  0
    0.8875    1.9125    0.0000 C   0  0  0  0  0  0  0  0  0  0  0  0
    1.9667    0.0000    0.0000 C   0  0  0  0  0  0  0  0  0  0  0  0
    9.5292    8.4125    0.0000 C   0  0  0  0  0  0  0  0  0  0  0  0
    4.4250    2.6333    0.0000 O   0  0  0  0  0  0  0  0  0  0  0  0
    5.7417    1.8208    0.0000 C   0  0  0  0  0  0  0  0  0  0  0  0
    0.0000    0.3833    0.0000 C   0  0  0  0  0  0  0  0  0  0  0  0
    8.5292    1.9708    0.0000 C   0  0  0  0  0  0  0  0  0  0  0  0
    7.2542    2.6708    0.0000 C   0  0  0  0  0  0  0  0  0  0  0  0
    7.1042    8.3375    0.0000 C   0  0  0  0  0  0  0  0  0  0  0  0
    8.2625    9.0917    0.0000 C   0  0  0  0  0  0  0  0  0  0  0  0
  2  1  1  0  0  0  0
  3  1  1  0  0  0  0
  4  2  2  0  0  0  0
  5  3  1  0  0  0  0
  6  5  2  0  0  0  0
  6  4  1  0  0  0  0
  7  2  1  0  0  0  0
  8  3  2  0  0  0  0
  9  7  1  0  0  0  0
 10  7  2  0  0  0  0
 11  1  1  0  0  0  0
 12 15  2  0  0  0  0
 12 16  1  0  0  0  0
 13  5  1  0  0  0  0
 14 24  1  0  0  0  0
 15 10  1  0  0  0  0
 16  9  2  0  0  0  0
 17 21  1  0  0  0  0
 18 12  1  0  0  0  0
 19 14  2  0  0  0  0
 20 14  1  0  0  0  0
 21 20  2  0  0  0  0
 22 19  1  0  0  0  0
 22 17  2  0  0  0  0
 23  6  1  0  0  0  0
 24 25  1  0  0  0  0
 25 28  1  0  0  0  0
 26 17  1  0  0  0  0
 27 11  1  0  0  0  0
 28 27  1  0  0  0  0
 29 13  2  0  0  0  0
 30 29  1  0  0  0  0
 30 23  2  0  0  0  0
M  END
>  <ID>
6724185

>  <Supplier>
ChemBridge

>  <clogP>
6.410000000000000e+000

>  <RB>
7

>  <tPSA>
4.412000000000000e+001

>  <Hacc>
3

>  <Hdon>
0

>  <LogSw>
-8.052000000000003e+000

>  <Group>
1

>  <Core>
061

$$$$
6904884
 OpenBabel03312015312D

 29 32  0  0  0  0  0  0  0  0999 V2000
    3.2542   -1.8417    0.0000 N   0  0  0  0  0  0  0  0  0  0  0  0
    1.8375   -1.8417    0.0000 C   0  0  0  0  0  0  0  0  0  0  0  0
    2.5417   -1.4250    0.0000 C   0  0  0  0  0  0  0  0  0  0  0  0
    3.2542   -2.6667    0.0000 C   0  0  0  0  0  0  0  0  0  0  0  0
    2.5417   -3.0750    0.0000 N   0  0  0  0  0  0  0  0  0  0  0  0
    1.8375   -2.6667    0.0000 C   0  0  0  0  0  0  0  0  0  0  0  0
    3.9750   -1.4292    0.0000 C   0  0  0  0  0  0  0  0  0  0  0  0
    1.1167   -1.4292    0.0000 C   0  0  0  0  0  0  0  0  0  0  0  0
   -0.8958   -2.1250    0.0000 C   0  0  0  0  0  0  0  0  0  0  0  0
   -0.3500   -1.5042    0.0000 O   0  0  0  0  0  0  0  0  0  0  0  0
    0.4042   -1.8417    0.0000 C   0  0  0  0  0  0  0  0  0  0  0  0
   -0.4833   -2.8417    0.0000 C   0  0  0  0  0  0  0  0  0  0  0  0
    0.3167   -2.6667    0.0000 C   0  0  0  0  0  0  0  0  0  0  0  0
    3.9750   -3.0792    0.0000 O   0  0  0  0  0  0  0  0  0  0  0  0
    2.5417   -0.6000    0.0000 O   0  0  0  0  0  0  0  0  0  0  0  0
    4.6875   -1.8500    0.0000 C   0  0  0  0  0  0  0  0  0  0  0  0
    3.9750   -0.6042    0.0000 C   0  0  0  0  0  0  0  0  0  0  0  0
    1.1167   -3.0792    0.0000 O   0  0  0  0  0  0  0  0  0  0  0  0
   -1.7208   -2.0417    0.0000 C   0  0  0  0  0  0  0  0  0  0  0  0
    4.6917   -0.2000    0.0000 C   0  0  0  0  0  0  0  0  0  0  0  0
    5.4042   -1.4417    0.0000 C   0  0  0  0  0  0  0  0  0  0  0  0
    5.4042   -0.6167    0.0000 C   0  0  0  0  0  0  0  0  0  0  0  0
   -2.2083   -2.7167    0.0000 C   0  0  0  0  0  0  0  0  0  0  0  0
   -2.0625   -1.2917    0.0000 C   0  0  0  0  0  0  0  0  0  0  0  0
    6.1125   -1.8542    0.0000 C   0  0  0  0  0  0  0  0  0  0  0  0
    4.7000    0.6250    0.0000 C   0  0  0  0  0  0  0  0  0  0  0  0
   -3.0250   -2.6292    0.0000 C   0  0  0  0  0  0  0  0  0  0  0  0
   -2.8833   -1.2042    0.0000 C   0  0  0  0  0  0  0  0  0  0  0  0
   -3.3625   -1.8750    0.0000 C   0  0  0  0  0  0  0  0  0  0  0  0
  2  3  1  0  0  0  0
  3  1  1  0  0  0  0
  4  1  1  0  0  0  0
  5  4  1  0  0  0  0
  6  5  1  0  0  0  0
  6  2  1  0  0  0  0
  7  1  1  0  0  0  0
  8  2  2  0  0  0  0
  9 10  1  0  0  0  0
 10 11  1  0  0  0  0
 11  8  1  0  0  0  0
 12 13  1  0  0  0  0
 12  9  2  0  0  0  0
 13 11  2  0  0  0  0
 14  4  2  0  0  0  0
 15  3  2  0  0  0  0
 16  7  2  0  0  0  0
 17  7  1  0  0  0  0
 18  6  2  0  0  0  0
 19  9  1  0  0  0  0
 20 17  2  0  0  0  0
 21 16  1  0  0  0  0
 22 20  1  0  0  0  0
 22 21  2  0  0  0  0
 23 19  1  0  0  0  0
 24 19  2  0  0  0  0
 25 21  1  0  0  0  0
 26 20  1  0  0  0  0
 27 23  2  0  0  0  0
 28 24  1  0  0  0  0
 29 28  2  0  0  0  0
 29 27  1  0  0  0  0
M  END
>  <ID>
6904884

>  <Supplier>
ChemBridge

>  <clogP>
4.310000000000000e+000

>  <RB>
3

>  <tPSA>
7.962000000000001e+001

>  <Hacc>
4

>  <Hdon>
1

>  <LogSw>
-5.698000000000000e+000

>  <Group>
2

>  <Core>
006

$$$$
6904885
 OpenBabel03312015312D

 32 34  0  0  0  0  0  0  0  0999 V2000
    1.3375    0.4583    0.0000 C   0  0  0  0  0  0  0  0  0  0  0  0
    2.0042    1.1333    0.0000 N   0  0  0  0  0  0  0  0  0  0  0  0
    1.9167    0.5500    0.0000 C   0  0  3  0  0  0  0  0  0  0  0  0
    1.0667    0.9875    0.0000 C   0  0  0  0  0  0  0  0  0  0  0  0
    1.4875    1.4000    0.0000 C   0  0  0  0  0  0  0  0  0  0  0  0
    0.9792    0.0583    0.0000 C   0  0  0  0  0  0  0  0  0  0  0  0
    2.3292    0.1458    0.0000 C   0  0  0  0  0  0  0  0  0  0  0  0
    0.4792   -0.1042    0.0000 C   0  0  0  0  0  0  0  0  0  0  0  0
    0.2125   -0.6292    0.0000 C   0  0  0  0  0  0  0  0  0  0  0  0
    2.8917    0.2958    0.0000 C   0  0  0  0  0  0  0  0  0  0  0  0
    0.1625    0.3958    0.0000 C   0  0  0  0  0  0  0  0  0  0  0  0
    2.1792   -0.4167    0.0000 C   0  0  0  0  0  0  0  0  0  0  0  0
    1.3917    1.9833    0.0000 O   0  0  0  0  0  0  0  0  0  0  0  0
    1.2667   -0.3875    0.0000 O   0  0  0  0  0  0  0  0  0  0  0  0
   -0.3750   -0.6542    0.0000 C   0  0  0  0  0  0  0  0  0  0  0  0
    0.4875    1.0833    0.0000 O   0  0  0  0  0  0  0  0  0  0  0  0
    3.3042   -0.1125    0.0000 C   0  0  0  0  0  0  0  0  0  0  0  0
    2.5167    1.4000    0.0000 C   0  0  0  0  0  0  0  0  0  0  0  0
    2.5917   -0.8292    0.0000 C   0  0  0  0  0  0  0  0  0  0  0  0
   -0.7000   -0.1542    0.0000 C   0  0  0  0  0  0  0  0  0  0  0  0
   -0.4250    0.3708    0.0000 C   0  0  0  0  0  0  0  0  0  0  0  0
    3.1542   -0.6792    0.0000 C   0  0  0  0  0  0  0  0  0  0  0  0
    3.3042    0.7208    0.0000 O   0  0  0  0  0  0  0  0  0  0  0  0
    2.4375   -1.4042    0.0000 O   0  0  0  0  0  0  0  0  0  0  0  0
   -1.2875   -0.1875    0.0000 O   0  0  0  0  0  0  0  0  0  0  0  0
    0.5292   -1.1250    0.0000 C   0  0  0  0  0  0  0  0  0  0  0  0
    2.0625    2.2958    0.0000 O   0  0  0  0  0  0  0  0  0  0  0  0
    2.5500    1.9833    0.0000 C   0  0  0  0  0  0  0  0  0  0  0  0
    3.8792    0.5708    0.0000 C   0  0  0  0  0  0  0  0  0  0  0  0
   -1.5583   -0.7125    0.0000 C   0  0  0  0  0  0  0  0  0  0  0  0
    1.8667   -1.5542    0.0000 C   0  0  0  0  0  0  0  0  0  0  0  0
    2.0917    2.8750    0.0000 C   0  0  0  0  0  0  0  0  0  0  0  0
  2  3  1  0  0  0  0
  3  1  1  0  0  0  0
  4  1  2  0  0  0  0
  5  4  1  0  0  0  0
  5  2  1  0  0  0  0
  6  1  1  0  0  0  0
  7  3  1  0  0  0  0
  8  6  1  0  0  0  0
  9  8  2  0  0  0  0
 10  7  1  0  0  0  0
 11  8  1  0  0  0  0
 12  7  2  0  0  0  0
 13  5  2  0  0  0  0
 14  6  2  0  0  0  0
 15  9  1  0  0  0  0
 16  4  1  0  0  0  0
 17 10  2  0  0  0  0
 17 22  1  0  0  0  0
 18  2  1  0  0  0  0
 19 12  1  0  0  0  0
 20 21  1  0  0  0  0
 20 15  2  0  0  0  0
 21 11  2  0  0  0  0
 22 19  2  0  0  0  0
 23 10  1  0  0  0  0
 24 19  1  0  0  0  0
 25 20  1  0  0  0  0
 26  9  1  0  0  0  0
 27 28  1  0  0  0  0
 28 18  1  0  0  0  0
 29 23  1  0  0  0  0
 30 25  1  0  0  0  0
 31 24  1  0  0  0  0
 32 27  1  0  0  0  0
M  END
>  <ID>
6904885

>  <Supplier>
ChemBridge

>  <clogP>
4.030000000000000e+000

>  <RB>
5

>  <tPSA>
9.453000000000003e+001

>  <Hacc>
7

>  <Hdon>
1

>  <LogSw>
-5.859999999999999e+000

>  <Group>
1

>  <Core>
095

$$$$
7843588
 OpenBabel03312015312D

 28 30  0  0  0  0  0  0  0  0999 V2000
    5.9125   -1.0667    0.0000 C   0  0  0  0  0  0  0  0  0  0  0  0
    7.7042    1.4458    0.0000 C   0  0  0  0  0  0  0  0  0  0  0  0
   10.6625    0.4750    0.0000 C   0  0  0  0  0  0  0  0  0  0  0  0
   10.6792   -2.5625    0.0000 C   0  0  0  0  0  0  0  0  0  0  0  0
    7.7292   -3.5625    0.0000 S   0  0  0  0  0  0  0  0  0  0  0  0
    2.7917   -1.1000    0.0000 N   0  0  0  0  0  0  0  0  0  0  0  0
    1.2375    1.5500    0.0000 C   0  0  0  0  0  0  0  0  0  0  0  0
    7.9542    4.5292    0.0000 C   0  0  0  0  0  0  0  0  0  0  0  0
   13.1917   -4.3542    0.0000 C   0  0  0  0  0  0  0  0  0  0  0  0
  -11.0917    6.8917    0.0000 C   0  0  0  0  0  0  0  0  0  0  0  0
  -12.5917    4.2167    0.0000 C   0  0  0  0  0  0  0  0  0  0  0  0
  -13.2292    9.2167    0.0000 O   0  0  0  0  0  0  0  0  0  0  0  0
    2.7917    4.2125    0.0000 S   0  0  0  0  0  0  0  0  0  0  0  0
   -1.8583    1.5500    0.0000 N   0  0  0  0  0  0  0  0  0  0  0  0
  -15.6667    4.8542    0.0000 O   0  0  0  0  0  0  0  0  0  0  0  0
  -16.0000    7.8792    0.0000 C   0  0  0  0  0  0  0  0  0  0  0  0
   -7.9917    6.8917    0.0000 C   0  0  0  0  0  0  0  0  0  0  0  0
    5.4250    6.3000    0.0000 O   0  0  0  0  0  0  0  0  0  0  0  0
   16.0000   -3.0750    0.0000 O   0  0  0  0  0  0  0  0  0  0  0  0
  -11.0417    1.5500    0.0000 C   0  0  0  0  0  0  0  0  0  0  0  0
   13.1542    2.2958    0.0000 C   0  0  0  0  0  0  0  0  0  0  0  0
   -6.4500    4.2167    0.0000 C   0  0  0  0  0  0  0  0  0  0  0  0
   10.7500    5.8542    0.0000 O   0  0  0  0  0  0  0  0  0  0  0  0
   -3.3583    4.2167    0.0000 C   0  0  0  0  0  0  0  0  0  0  0  0
   12.8917   -7.4250    0.0000 O   0  0  0  0  0  0  0  0  0  0  0  0
   -7.9917    1.5500    0.0000 C   0  0  0  0  0  0  0  0  0  0  0  0
   11.0042    8.9292    0.0000 C   0  0  0  0  0  0  0  0  0  0  0  0
   15.4042   -9.2167    0.0000 C   0  0  0  0  0  0  0  0  0  0  0  0
  2  1  2  0  0  0  0
  3  2  1  0  0  0  0
  3  4  2  0  0  0  0
  4  5  1  0  0  0  0
  5  1  1  0  0  0  0
  6  1  1  0  0  0  0
  7  6  1  0  0  0  0
  8  2  1  0  0  0  0
  9  4  1  0  0  0  0
 10 17  1  0  0  0  0
 10 11  2  0  0  0  0
 11 20  1  0  0  0  0
 12 10  1  0  0  0  0
 13  7  2  0  0  0  0
 14  7  1  0  0  0  0
 15 11  1  0  0  0  0
 15 16  1  0  0  0  0
 16 12  1  0  0  0  0
 17 22  2  0  0  0  0
 18  8  2  0  0  0  0
 19  9  2  0  0  0  0
 20 26  2  0  0  0  0
 21  3  1  0  0  0  0
 22 24  1  0  0  0  0
 23  8  1  0  0  0  0
 24 14  1  0  0  0  0
 25  9  1  0  0  0  0
 26 22  1  0  0  0  0
 27 23  1  0  0  0  0
 28 25  1  0  0  0  0
M  END
>  <ID>
7843588

>  <Supplier>
ChemBridge

>  <clogP>
3.100000000000000e+000

>  <RB>
5

>  <tPSA>
9.512000000000002e+001

>  <Hacc>
6

>  <Hdon>
2

>  <LogSw>
-3.919000000000000e+000

>  <Group>
1

>  <Core>
269

$$$$
5769748
 OpenBabel03312015312D

 27 30  0  0  0  0  0  0  0  0999 V2000
    4.2875   -1.4667    0.0000 C   0  0  0  0  0  0  0  0  0  0  0  0
    5.0000   -1.8792    0.0000 C   0  0  0  0  0  0  0  0  0  0  0  0
    5.7167   -1.4667    0.0000 C   0  0  0  0  0  0  0  0  0  0  0  0
    5.7167   -0.6500    0.0000 C   0  0  0  0  0  0  0  0  0  0  0  0
    4.2875   -0.6500    0.0000 C   0  0  0  0  0  0  0  0  0  0  0  0
    5.0000   -0.2292    0.0000 O   0  0  0  0  0  0  0  0  0  0  0  0
    3.5667   -1.8792    0.0000 C   0  0  0  0  0  0  0  0  0  0  0  0
    3.5667   -0.2292    0.0000 C   0  0  0  0  0  0  0  0  0  0  0  0
    2.8542   -1.4667    0.0000 C   0  0  0  0  0  0  0  0  0  0  0  0
    2.8542   -0.6500    0.0000 C   0  0  0  0  0  0  0  0  0  0  0  0
    5.0000   -2.7042    0.0000 O   0  0  0  0  0  0  0  0  0  0  0  0
    6.4375   -0.2292    0.0000 C   0  0  0  0  0  0  0  0  0  0  0  0
    2.1292   -0.2292    0.0000 O   0  0  0  0  0  0  0  0  0  0  0  0
    3.5667   -2.7042    0.0000 O   0  0  0  0  0  0  0  0  0  0  0  0
    0.7042   -0.2375    0.0000 C   0  0  0  0  0  0  0  0  0  0  0  0
    1.4167   -0.6500    0.0000 C   0  0  0  0  0  0  0  0  0  0  0  0
   -0.7208    0.5708    0.0000 C   0  0  0  0  0  0  0  0  0  0  0  0
    0.7000    0.5833    0.0000 C   0  0  0  0  0  0  0  0  0  0  0  0
    0.0000   -0.6542    0.0000 C   0  0  0  0  0  0  0  0  0  0  0  0
   -0.7208   -0.2500    0.0000 C   0  0  0  0  0  0  0  0  0  0  0  0
   -0.0125    0.9958    0.0000 C   0  0  0  0  0  0  0  0  0  0  0  0
    7.1500   -0.6500    0.0000 C   0  0  0  0  0  0  0  0  0  0  0  0
    6.4375    0.5958    0.0000 C   0  0  0  0  0  0  0  0  0  0  0  0
   -1.4458    0.9833    0.0000 C   0  0  0  0  0  0  0  0  0  0  0  0
    7.8542   -0.2292    0.0000 C   0  0  0  0  0  0  0  0  0  0  0  0
    7.1500    1.0000    0.0000 C   0  0  0  0  0  0  0  0  0  0  0  0
    7.8542    0.5958    0.0000 C   0  0  0  0  0  0  0  0  0  0  0  0
  2  1  1  0  0  0  0
  3  2  1  0  0  0  0
  4  6  1  0  0  0  0
  4  3  2  0  0  0  0
  5  1  1  0  0  0  0
  6  5  1  0  0  0  0
  7  1  2  0  0  0  0
  8  5  2  0  0  0  0
  9  7  1  0  0  0  0
 10  9  2  0  0  0  0
 10  8  1  0  0  0  0
 11  2  2  0  0  0  0
 12  4  1  0  0  0  0
 13 10  1  0  0  0  0
 14  7  1  0  0  0  0
 15 16  1  0  0  0  0
 16 13  1  0  0  0  0
 17 20  1  0  0  0  0
 17 21  2  0  0  0  0
 18 15  2  0  0  0  0
 19 15  1  0  0  0  0
 20 19  2  0  0  0  0
 21 18  1  0  0  0  0
 22 12  2  0  0  0  0
 23 12  1  0  0  0  0
 24 17  1  0  0  0  0
 25 22  1  0  0  0  0
 26 23  2  0  0  0  0
 27 26  1  0  0  0  0
 27 25  2  0  0  0  0
M  END
>  <ID>
5769748

>  <Supplier>
ChemBridge

>  <clogP>
5.500000000000000e+000

>  <RB>
4

>  <tPSA>
5.967000000000000e+001

>  <Hacc>
4

>  <Hdon>
1

>  <LogSw>
-5.930000000000002e+000

>  <Group>
3

>  <Core>
083

$$$$
5233271
 OpenBabel03312015312D

 41 45  0  0  0  0  0  0  0  0999 V2000
   -0.9833   -0.0292    0.0000 N   0  0  0  0  0  0  0  0  0  0  0  0
   -0.9833    0.6208    0.0000 C   0  0  0  0  0  0  0  0  0  0  0  0
   -1.5625   -0.3667    0.0000 C   0  0  0  0  0  0  0  0  0  0  0  0
   -2.1458    0.6208    0.0000 C   0  0  0  0  0  0  0  0  0  0  0  0
   -2.1458   -0.0292    0.0000 C   0  0  0  0  0  0  0  0  0  0  0  0
   -0.3458   -0.4000    0.0000 C   0  0  0  0  0  0  0  0  0  0  0  0
   -3.9583    0.9958    0.0000 C   0  0  0  0  0  0  0  0  0  0  0  0
    1.5292   -0.0292    0.0000 C   0  0  0  0  0  0  0  0  0  0  0  0
   -2.7208    0.9500    0.0000 C   0  0  0  0  0  0  0  0  0  0  0  0
   -3.3000    0.6208    0.0000 C   0  0  0  0  0  0  0  0  0  0  0  0
    2.1542   -0.3792    0.0000 N   0  0  0  0  0  0  0  0  0  0  0  0
   -4.5958    0.6208    0.0000 N   0  0  0  0  0  0  0  0  0  0  0  0
    0.2792   -0.0292    0.0000 C   0  0  0  0  0  0  0  0  0  0  0  0
    0.9042   -0.3875    0.0000 C   0  0  0  0  0  0  0  0  0  0  0  0
   -2.7208   -0.3667    0.0000 C   0  0  0  0  0  0  0  0  0  0  0  0
   -0.3708    1.0000    0.0000 O   0  0  0  0  0  0  0  0  0  0  0  0
   -1.5333   -1.1000    0.0000 O   0  0  0  0  0  0  0  0  0  0  0  0
   -4.5958   -2.3375    0.0000 C   0  0  0  0  0  0  0  0  0  0  0  0
    4.6292    1.0958    0.0000 C   0  0  0  0  0  0  0  0  0  0  0  0
    4.0042    0.7333    0.0000 C   0  0  0  0  0  0  0  0  0  0  0  0
   -4.5958   -1.6167    0.0000 C   0  0  0  0  0  0  0  0  0  0  0  0
    1.5167    0.6958    0.0000 O   0  0  0  0  0  0  0  0  0  0  0  0
   -3.9583    1.7333    0.0000 O   0  0  0  0  0  0  0  0  0  0  0  0
   -3.3000   -0.0292    0.0000 C   0  0  0  0  0  0  0  0  0  0  0  0
   -5.2083   -2.7292    0.0000 O   0  0  0  0  0  0  0  0  0  0  0  0
    5.2875    0.7833    0.0000 O   0  0  0  0  0  0  0  0  0  0  0  0
    2.7542    0.0125    0.0000 C   0  0  0  0  0  0  0  0  0  0  0  0
   -4.5958   -0.1167    0.0000 C   0  0  0  0  0  0  0  0  0  0  0  0
    4.0292    0.0125    0.0000 C   0  0  0  0  0  0  0  0  0  0  0  0
   -5.2333   -1.2375    0.0000 C   0  0  0  0  0  0  0  0  0  0  0  0
    3.3875    1.1000    0.0000 C   0  0  0  0  0  0  0  0  0  0  0  0
   -3.9458   -1.2375    0.0000 C   0  0  0  0  0  0  0  0  0  0  0  0
    3.3875   -0.3500    0.0000 C   0  0  0  0  0  0  0  0  0  0  0  0
   -5.2458   -0.4792    0.0000 C   0  0  0  0  0  0  0  0  0  0  0  0
    2.7542    0.7208    0.0000 C   0  0  0  0  0  0  0  0  0  0  0  0
   -3.9458   -0.5000    0.0000 C   0  0  0  0  0  0  0  0  0  0  0  0
   -0.3458   -1.1167    0.0000 C   0  0  0  0  0  0  0  0  0  0  0  0
    0.9167   -1.1042    0.0000 C   0  0  0  0  0  0  0  0  0  0  0  0
    0.2875   -1.5000    0.0000 C   0  0  0  0  0  0  0  0  0  0  0  0
   -4.0000   -2.7375    0.0000 C   0  0  0  0  0  0  0  0  0  0  0  0
    4.6542    1.8125    0.0000 C   0  0  0  0  0  0  0  0  0  0  0  0
  2  1  1  0  0  0  0
  3  1  1  0  0  0  0
  4  2  1  0  0  0  0
  5  3  1  0  0  0  0
  5  4  2  0  0  0  0
  6  1  1  0  0  0  0
  7 10  1  0  0  0  0
  8 14  1  0  0  0  0
  9  4  1  0  0  0  0
 10  9  2  0  0  0  0
 11  8  1  0  0  0  0
 12  7  1  0  0  0  0
 13  6  2  0  0  0  0
 14 13  1  0  0  0  0
 15  5  1  0  0  0  0
 16  2  2  0  0  0  0
 17  3  2  0  0  0  0
 18 21  1  0  0  0  0
 19 20  1  0  0  0  0
 20 31  2  0  0  0  0
 20 29  1  0  0  0  0
 21 32  2  0  0  0  0
 22  8  2  0  0  0  0
 23  7  2  0  0  0  0
 24 15  2  0  0  0  0
 24 10  1  0  0  0  0
 25 18  2  0  0  0  0
 26 19  2  0  0  0  0
 27 11  1  0  0  0  0
 28 12  1  0  0  0  0
 29 33  2  0  0  0  0
 30 34  2  0  0  0  0
 30 21  1  0  0  0  0
 31 35  1  0  0  0  0
 32 36  1  0  0  0  0
 33 27  1  0  0  0  0
 34 28  1  0  0  0  0
 35 27  2  0  0  0  0
 36 28  2  0  0  0  0
 37  6  1  0  0  0  0
 38 39  1  0  0  0  0
 38 14  2  0  0  0  0
 39 37  2  0  0  0  0
 40 18  1  0  0  0  0
 41 19  1  0  0  0  0
M  END
>  <ID>
5233271

>  <Supplier>
ChemBridge

>  <clogP>
3.680000000000000e+000

>  <RB>
7

>  <tPSA>
1.297200000000000e+002

>  <Hacc>
6

>  <Hdon>
2

>  <LogSw>
-6.318000000000000e+000

>  <Group>
2

>  <Core>
115

$$$$
7815677
 OpenBabel03312015312D

 33 35  0  0  0  0  0  0  0  0999 V2000
    2.9250   -3.9917    0.0000 S   0  0  0  0  0  0  0  0  0  0  0  0
    3.6417   -3.5792    0.0000 C   0  0  0  0  0  0  0  0  0  0  0  0
    8.6417   -2.3167    0.0000 C   0  0  0  0  0  0  0  0  0  0  0  0
    2.2042   -4.4000    0.0000 N   0  0  0  0  0  0  0  0  0  0  0  0
    3.6417   -2.7500    0.0000 C   0  0  0  0  0  0  0  0  0  0  0  0
    7.9292   -2.7375    0.0000 N   0  0  0  0  0  0  0  0  0  0  0  0
    4.3542   -2.3375    0.0000 C   0  0  0  0  0  0  0  0  0  0  0  0
    7.2125   -2.3292    0.0000 C   0  0  0  0  0  0  0  0  0  0  0  0
    3.3292   -4.7042    0.0000 O   0  0  0  0  0  0  0  0  0  0  0  0
    2.5167   -3.2750    0.0000 O   0  0  0  0  0  0  0  0  0  0  0  0
    5.0667   -2.7500    0.0000 C   0  0  0  0  0  0  0  0  0  0  0  0
    5.7792   -2.3292    0.0000 O   0  0  0  0  0  0  0  0  0  0  0  0
    9.3542   -2.7292    0.0000 C   0  0  0  0  0  0  0  0  0  0  0  0
    8.6292   -1.4917    0.0000 C   0  0  0  0  0  0  0  0  0  0  0  0
    4.3542   -3.9917    0.0000 C   0  0  0  0  0  0  0  0  0  0  0  0
    7.2042   -1.5042    0.0000 O   0  0  0  0  0  0  0  0  0  0  0  0
    5.0667   -3.5792    0.0000 C   0  0  0  0  0  0  0  0  0  0  0  0
    6.5000   -2.7417    0.0000 C   0  0  0  0  0  0  0  0  0  0  0  0
    1.4917   -3.9792    0.0000 C   0  0  0  0  0  0  0  0  0  0  0  0
    4.3542   -1.5125    0.0000 Cl  0  0  0  0  0  0  0  0  0  0  0  0
    0.7792   -4.3792    0.0000 C   0  0  0  0  0  0  0  0  0  0  0  0
   10.0667   -1.4875    0.0000 C   0  0  0  0  0  0  0  0  0  0  0  0
    9.3417   -1.0792    0.0000 C   0  0  0  0  0  0  0  0  0  0  0  0
   10.0750   -2.3167    0.0000 C   0  0  0  0  0  0  0  0  0  0  0  0
    9.3625   -3.5542    0.0000 C   0  0  0  0  0  0  0  0  0  0  0  0
    7.9167   -1.0917    0.0000 C   0  0  0  0  0  0  0  0  0  0  0  0
    0.7750   -5.2042    0.0000 C   0  0  0  0  0  0  0  0  0  0  0  0
    0.0667   -3.9625    0.0000 C   0  0  0  0  0  0  0  0  0  0  0  0
    7.9125   -0.2667    0.0000 C   0  0  0  0  0  0  0  0  0  0  0  0
   10.0750   -3.9667    0.0000 C   0  0  0  0  0  0  0  0  0  0  0  0
   -0.6458   -4.3667    0.0000 C   0  0  0  0  0  0  0  0  0  0  0  0
    0.0542   -5.6125    0.0000 C   0  0  0  0  0  0  0  0  0  0  0  0
   -0.6583   -5.1917    0.0000 C   0  0  0  0  0  0  0  0  0  0  0  0
  2  1  1  0  0  0  0
  3  6  1  0  0  0  0
  4  1  1  0  0  0  0
  5  2  2  0  0  0  0
  6  8  1  0  0  0  0
  7  5  1  0  0  0  0
  8 18  1  0  0  0  0
  9  1  2  0  0  0  0
 10  1  2  0  0  0  0
 11 17  1  0  0  0  0
 11  7  2  0  0  0  0
 12 11  1  0  0  0  0
 13  3  2  0  0  0  0
 14  3  1  0  0  0  0
 15  2  1  0  0  0  0
 16  8  2  0  0  0  0
 17 15  2  0  0  0  0
 18 12  1  0  0  0  0
 19  4  1  0  0  0  0
 20  7  1  0  0  0  0
 21 19  1  0  0  0  0
 22 23  1  0  0  0  0
 23 14  2  0  0  0  0
 24 13  1  0  0  0  0
 24 22  2  0  0  0  0
 25 13  1  0  0  0  0
 26 14  1  0  0  0  0
 27 21  1  0  0  0  0
 28 21  2  0  0  0  0
 29 26  1  0  0  0  0
 30 25  1  0  0  0  0
 31 28  1  0  0  0  0
 32 27  2  0  0  0  0
 32 33  1  0  0  0  0
 33 31  2  0  0  0  0
M  END
>  <ID>
7815677

>  <Supplier>
ChemBridge

>  <clogP>
4.580000000000000e+000

>  <RB>
7

>  <tPSA>
8.450000000000004e+001

>  <Hacc>
5

>  <Hdon>
2

>  <LogSw>
-6.661000000000000e+000

>  <Group>
1

>  <Core>
315

$$$$
7843587
 OpenBabel03312015312D

 23 25  0  0  0  0  0  0  0  0999 V2000
   12.4167    1.5500    0.0000 N   0  3  0  0  0  0  0  0  0  0  0  0
   -0.0458   -1.5292    0.0000 C   0  0  0  0  0  0  0  0  0  0  0  0
   -3.6083   -1.5292    0.0000 N   0  0  0  0  0  0  0  0  0  0  0  0
   10.6667   -1.5625    0.0000 C   0  0  0  0  0  0  0  0  0  0  0  0
   -5.3125    1.5333    0.0000 C   0  0  3  0  0  0  0  0  0  0  0  0
   -8.8792    1.5333    0.0000 C   0  0  0  0  0  0  0  0  0  0  0  0
    1.7167   -4.6000    0.0000 N   0  0  0  0  0  0  0  0  0  0  0  0
    7.1375   -1.5625    0.0000 C   0  0  0  0  0  0  0  0  0  0  0  0
   16.0000    1.5208    0.0000 O   0  5  0  0  0  0  0  0  0  0  0  0
    1.7167    1.5208    0.0000 S   0  0  0  0  0  0  0  0  0  0  0  0
   10.6292    4.6250    0.0000 O   0  0  0  0  0  0  0  0  0  0  0  0
    5.3042   -4.6417    0.0000 C   0  0  0  0  0  0  0  0  0  0  0  0
  -10.6292    4.6292    0.0000 C   0  0  0  0  0  0  0  0  0  0  0  0
   -3.5125    4.6042    0.0000 C   0  0  0  0  0  0  0  0  0  0  0  0
   12.4375   -4.6250    0.0000 C   0  0  0  0  0  0  0  0  0  0  0  0
   -5.3000    7.7125    0.0000 C   0  0  0  0  0  0  0  0  0  0  0  0
  -10.6542   -1.5667    0.0000 C   0  0  0  0  0  0  0  0  0  0  0  0
   10.6667   -7.7042    0.0000 C   0  0  0  0  0  0  0  0  0  0  0  0
   -8.8375    7.7292    0.0000 C   0  0  0  0  0  0  0  0  0  0  0  0
    7.0917   -7.7292    0.0000 C   0  0  0  0  0  0  0  0  0  0  0  0
  -14.1917    4.6667    0.0000 C   0  0  0  0  0  0  0  0  0  0  0  0
  -14.2250   -1.5167    0.0000 C   0  0  0  0  0  0  0  0  0  0  0  0
  -16.0000    1.6083    0.0000 C   0  0  0  0  0  0  0  0  0  0  0  0
  2  7  1  0  0  0  0
  3  2  1  0  0  0  0
  4  1  1  0  0  0  0
  5  3  1  0  0  0  0
  6  5  1  0  0  0  0
  7 12  1  0  0  0  0
  8  4  1  0  0  0  0
  9  1  1  0  0  0  0
 10  2  2  0  0  0  0
 11  1  2  0  0  0  0
 12  8  2  0  0  0  0
 12 20  1  0  0  0  0
 13  6  2  0  0  0  0
 13 19  1  0  0  0  0
 14  5  1  0  0  0  0
 15  4  2  0  0  0  0
 16 14  1  0  0  0  0
 17  6  1  0  0  0  0
 18 15  1  0  0  0  0
 19 16  1  0  0  0  0
 20 18  2  0  0  0  0
 21 13  1  0  0  0  0
 22 17  2  0  0  0  0
 23 22  1  0  0  0  0
 23 21  2  0  0  0  0
M  CHG  2   1   1   9  -1
M  END
>  <ID>
7843587

>  <Supplier>
ChemBridge

>  <clogP>
4.010000000000000e+000

>  <RB>
2

>  <tPSA>
6.720000000000000e+001

>  <Hacc>
2

>  <Hdon>
2

>  <LogSw>
-4.393999999999998e+000

>  <Group>
1

$$$$
7843581
 OpenBabel03312015312D

 24 25  0  0  0  0  0  0  0  0999 V2000
    0.2792   -4.4792    0.0000 S   0  0  0  0  0  0  0  0  0  0  0  0
    1.7125   -2.8292    0.0000 C   0  0  0  0  0  0  0  0  0  0  0  0
    0.9917   -4.0667    0.0000 N   0  0  0  0  0  0  0  0  0  0  0  0
    0.9917   -3.2417    0.0000 C   0  0  0  0  0  0  0  0  0  0  0  0
    2.4292   -3.2417    0.0000 C   0  0  0  0  0  0  0  0  0  0  0  0
    3.1417   -2.8250    0.0000 N   0  0  0  0  0  0  0  0  0  0  0  0
    0.2792   -5.3042    0.0000 O   0  0  0  0  0  0  0  0  0  0  0  0
    0.9917   -4.8917    0.0000 O   0  0  0  0  0  0  0  0  0  0  0  0
    2.4292   -4.0667    0.0000 O   0  0  0  0  0  0  0  0  0  0  0  0
   -0.4333   -4.0667    0.0000 C   0  0  0  0  0  0  0  0  0  0  0  0
    3.8542   -3.2292    0.0000 C   0  0  0  0  0  0  0  0  0  0  0  0
    4.5667   -2.8167    0.0000 C   0  0  0  0  0  0  0  0  0  0  0  0
    5.9875   -1.9792    0.0000 C   0  0  0  0  0  0  0  0  0  0  0  0
    1.7125   -2.0000    0.0000 C   0  0  0  0  0  0  0  0  0  0  0  0
    1.7125   -4.4792    0.0000 C   0  0  0  0  0  0  0  0  0  0  0  0
    5.2792   -3.2292    0.0000 C   0  0  0  0  0  0  0  0  0  0  0  0
    4.5542   -1.9917    0.0000 C   0  0  0  0  0  0  0  0  0  0  0  0
    5.2667   -1.5792    0.0000 C   0  0  0  0  0  0  0  0  0  0  0  0
    5.9917   -2.8125    0.0000 C   0  0  0  0  0  0  0  0  0  0  0  0
    0.2792   -2.8292    0.0000 C   0  0  0  0  0  0  0  0  0  0  0  0
    6.6917   -1.5625    0.0000 O   0  0  0  0  0  0  0  0  0  0  0  0
    7.4167   -1.9667    0.0000 C   0  0  0  0  0  0  0  0  0  0  0  0
    0.9917   -1.5875    0.0000 C   0  0  0  0  0  0  0  0  0  0  0  0
    0.2792   -2.0000    0.0000 C   0  0  0  0  0  0  0  0  0  0  0  0
  2  4  2  0  0  0  0
  3  1  1  0  0  0  0
  4  3  1  0  0  0  0
  5  2  1  0  0  0  0
  6  5  1  0  0  0  0
  7  1  2  0  0  0  0
  8  1  2  0  0  0  0
  9  5  2  0  0  0  0
 10  1  1  0  0  0  0
 11  6  1  0  0  0  0
 12 11  1  0  0  0  0
 13 18  2  0  0  0  0
 13 19  1  0  0  0  0
 14  2  1  0  0  0  0
 15  3  1  0  0  0  0
 16 12  1  0  0  0  0
 17 12  2  0  0  0  0
 18 17  1  0  0  0  0
 19 16  2  0  0  0  0
 20  4  1  0  0  0  0
 21 13  1  0  0  0  0
 22 21  1  0  0  0  0
 23 24  1  0  0  0  0
 23 14  2  0  0  0  0
 24 20  2  0  0  0  0
M  END
>  <ID>
7843581

>  <Supplier>
ChemBridge

>  <clogP>
4.600000000000000e-001

>  <RB>
4

>  <tPSA>
7.570999999999999e+001

>  <Hacc>
4

>  <Hdon>
1

>  <LogSw>
-2.133000000000000e+000

>  <Group>
2

>  <Core>
142

$$$$
7843582
 OpenBabel03312015312D

 35 38  0  0  0  0  0  0  0  0999 V2000
    6.6875   -6.2917    0.0000 C   0  0  0  0  0  0  0  0  0  0  0  0
    6.6792   -5.4917    0.0000 C   0  0  0  0  0  0  0  0  0  0  0  0
    5.9750   -6.7042    0.0000 C   0  0  0  0  0  0  0  0  0  0  0  0
    5.9667   -5.0792    0.0000 O   0  0  0  0  0  0  0  0  0  0  0  0
    5.2667   -6.3042    0.0000 C   0  0  0  0  0  0  0  0  0  0  0  0
    5.2542   -5.4917    0.0000 C   0  0  0  0  0  0  0  0  0  0  0  0
    7.3917   -5.0792    0.0000 C   0  0  0  0  0  0  0  0  0  0  0  0
    7.4000   -6.7000    0.0000 C   0  0  0  0  0  0  0  0  0  0  0  0
    2.4417   -4.7167    0.0000 C   0  0  0  0  0  0  0  0  0  0  0  0
    4.5542   -5.0917    0.0000 C   0  0  0  0  0  0  0  0  0  0  0  0
    3.1417   -5.1042    0.0000 O   0  0  0  0  0  0  0  0  0  0  0  0
    4.5542   -6.7042    0.0000 C   0  0  0  0  0  0  0  0  0  0  0  0
    5.9750   -7.5042    0.0000 O   0  0  0  0  0  0  0  0  0  0  0  0
    1.7542   -5.1292    0.0000 C   0  0  0  0  0  0  0  0  0  0  0  0
    3.8417   -5.4917    0.0000 C   0  0  0  0  0  0  0  0  0  0  0  0
    2.4292   -3.9167    0.0000 O   0  0  0  0  0  0  0  0  0  0  0  0
    7.4000   -7.5292    0.0000 C   0  0  0  0  0  0  0  0  0  0  0  0
    8.0417   -4.7000    0.0000 F   0  0  0  0  0  0  0  0  0  0  0  0
    8.2042   -5.3792    0.0000 F   0  0  0  0  0  0  0  0  0  0  0  0
    7.5292   -4.2250    0.0000 F   0  0  0  0  0  0  0  0  0  0  0  0
    1.7667   -5.9250    0.0000 C   0  0  0  0  0  0  0  0  0  0  0  0
    1.0542   -4.7417    0.0000 C   0  0  0  0  0  0  0  0  0  0  0  0
    3.8417   -6.3042    0.0000 C   0  0  0  0  0  0  0  0  0  0  0  0
    0.3792   -5.9542    0.0000 C   0  0  0  0  0  0  0  0  0  0  0  0
    0.3667   -5.1542    0.0000 C   0  0  0  0  0  0  0  0  0  0  0  0
    1.0875   -6.3417    0.0000 C   0  0  0  0  0  0  0  0  0  0  0  0
    6.6875   -7.9417    0.0000 O   0  0  0  0  0  0  0  0  0  0  0  0
    8.1042   -6.2875    0.0000 C   0  0  0  0  0  0  0  0  0  0  0  0
   -0.3000   -6.3667    0.0000 O   0  0  0  0  0  0  0  0  0  0  0  0
    8.1167   -7.9375    0.0000 C   0  0  0  0  0  0  0  0  0  0  0  0
   -1.0000   -5.9792    0.0000 C   0  0  0  0  0  0  0  0  0  0  0  0
    6.6917   -8.7667    0.0000 C   0  0  0  0  0  0  0  0  0  0  0  0
    8.8250   -6.6917    0.0000 C   0  0  0  0  0  0  0  0  0  0  0  0
   -1.6875   -6.3917    0.0000 C   0  0  0  0  0  0  0  0  0  0  0  0
    8.8292   -7.5250    0.0000 C   0  0  0  0  0  0  0  0  0  0  0  0
  2  1  2  0  0  0  0
  3  1  1  0  0  0  0
  4  2  1  0  0  0  0
  4  6  1  0  0  0  0
  5  3  1  0  0  0  0
  6  5  1  0  0  0  0
  7  2  1  0  0  0  0
  8  1  1  0  0  0  0
  9 11  1  0  0  0  0
 10  6  2  0  0  0  0
 10 15  1  0  0  0  0
 11 15  1  0  0  0  0
 12  5  2  0  0  0  0
 13  3  2  0  0  0  0
 14  9  1  0  0  0  0
 15 23  2  0  0  0  0
 16  9  2  0  0  0  0
 17  8  2  0  0  0  0
 18  7  1  0  0  0  0
 19  7  1  0  0  0  0
 20  7  1  0  0  0  0
 21 14  1  0  0  0  0
 22 14  2  0  0  0  0
 23 12  1  0  0  0  0
 24 25  2  0  0  0  0
 24 26  1  0  0  0  0
 25 22  1  0  0  0  0
 26 21  2  0  0  0  0
 27 17  1  0  0  0  0
 28  8  1  0  0  0  0
 29 24  1  0  0  0  0
 30 17  1  0  0  0  0
 31 29  1  0  0  0  0
 32 27  1  0  0  0  0
 33 28  2  0  0  0  0
 34 31  1  0  0  0  0
 35 33  1  0  0  0  0
 35 30  2  0  0  0  0
M  END
>  <ID>
7843582

>  <Supplier>
ChemBridge

>  <clogP>
5.670000000000000e+000

>  <RB>
4

>  <tPSA>
7.497000000000000e+001

>  <Hacc>
6

>  <Hdon>
0

>  <LogSw>
-7.573000000000000e+000

>  <Group>
1

>  <Core>
080

$$$$
5377481
 OpenBabel03312015312D

 18 20  0  0  0  0  0  0  0  0999 V2000
   -1.8625    1.0208    0.0000 N   0  0  0  0  0  0  0  0  0  0  0  0
   -2.1500    0.0833    0.0000 C   0  0  0  0  0  0  0  0  0  0  0  0
   -0.5708    0.1333    0.0000 C   0  0  0  0  0  0  0  0  0  0  0  0
   -0.9125    1.0208    0.0000 C   0  0  0  0  0  0  0  0  0  0  0  0
   -1.3500   -0.4667    0.0000 S   0  0  0  0  0  0  0  0  0  0  0  0
    0.3542   -0.1042    0.0000 C   0  0  0  0  0  0  0  0  0  0  0  0
    1.0292    0.5708    0.0000 C   0  0  0  0  0  0  0  0  0  0  0  0
    2.6375    1.0333    0.0000 C   0  0  0  0  0  0  0  0  0  0  0  0
    2.3792    1.9708    0.0000 C   0  0  0  0  0  0  0  0  0  0  0  0
    1.4375    2.1958    0.0000 C   0  0  0  0  0  0  0  0  0  0  0  0
    1.9667    0.3500    0.0000 C   0  0  0  0  0  0  0  0  0  0  0  0
    0.7792    1.4958    0.0000 C   0  0  0  0  0  0  0  0  0  0  0  0
   -3.0500   -0.2375    0.0000 S   0  0  0  0  0  0  0  0  0  0  0  0
    2.8500    2.8125    0.0000 O   0  0  0  0  0  0  0  0  0  0  0  0
    1.3042    3.1708    0.0000 O   0  0  0  0  0  0  0  0  0  0  0  0
   -0.3708    1.8125    0.0000 O   0  0  0  0  0  0  0  0  0  0  0  0
    2.1792    3.5333    0.0000 C   0  0  0  0  0  0  0  0  0  0  0  0
    2.2375   -0.5542    0.0000 Cl  0  0  0  0  0  0  0  0  0  0  0  0
  2  1  1  0  0  0  0
  3  4  1  0  0  0  0
  4  1  1  0  0  0  0
  5  2  1  0  0  0  0
  5  3  1  0  0  0  0
  6  3  2  0  0  0  0
  7  6  1  0  0  0  0
  8 11  1  0  0  0  0
  9 10  1  0  0  0  0
  9  8  2  0  0  0  0
 10 12  2  0  0  0  0
 11  7  2  0  0  0  0
 12  7  1  0  0  0  0
 13  2  2  0  0  0  0
 14  9  1  0  0  0  0
 15 10  1  0  0  0  0
 16  4  2  0  0  0  0
 17 15  1  0  0  0  0
 17 14  1  0  0  0  0
 18 11  1  0  0  0  0
M  END
>  <ID>
5377481

>  <Supplier>
ChemBridge

>  <clogP>
2.140000000000000e+000

>  <RB>
1

>  <tPSA>
4.756000000000000e+001

>  <Hacc>
3

>  <Hdon>
1

>  <LogSw>
-3.214000000000000e+000

>  <Group>
3

>  <Core>
001

$$$$
9008458
 OpenBabel03312015312D

 28 30  0  0  0  0  0  0  0  0999 V2000
    1.7667    1.0583    0.0000 N   0  3  0  0  0  0  0  0  0  0  0  0
    1.3917    1.7000    0.0000 C   0  0  0  0  0  0  0  0  0  0  0  0
    1.7667    2.3500    0.0000 C   0  0  0  0  0  0  0  0  0  0  0  0
    4.7667    3.6500    0.0000 C   0  0  0  0  0  0  0  0  0  0  0  0
    5.1417    3.0000    0.0000 N   0  0  0  0  0  0  0  0  0  0  0  0
    2.5167    2.3500    0.0000 O   0  0  0  0  0  0  0  0  0  0  0  0
    4.0167    3.6500    0.0000 C   0  0  0  0  0  0  0  0  0  0  0  0
    5.8917    3.0000    0.0000 C   0  0  0  0  0  0  0  0  0  0  0  0
    1.3917    0.4083    0.0000 O   0  5  0  0  0  0  0  0  0  0  0  0
    2.5167    1.0583    0.0000 O   0  0  0  0  0  0  0  0  0  0  0  0
    1.3917    3.0000    0.0000 C   0  0  0  0  0  0  0  0  0  0  0  0
    5.1417    4.2917    0.0000 O   0  0  0  0  0  0  0  0  0  0  0  0
    3.6417    3.0000    0.0000 C   0  0  0  0  0  0  0  0  0  0  0  0
    2.8917    3.0000    0.0000 C   0  0  0  0  0  0  0  0  0  0  0  0
    6.2667    2.3500    0.0000 C   0  0  0  0  0  0  0  0  0  0  0  0
    0.6417    1.7000    0.0000 C   0  0  0  0  0  0  0  0  0  0  0  0
    1.7667    3.6500    0.0000 Cl  0  0  0  0  0  0  0  0  0  0  0  0
    5.8917    1.7000    0.0000 O   0  0  0  0  0  0  0  0  0  0  0  0
    3.6417    4.2917    0.0000 C   0  0  0  0  0  0  0  0  0  0  0  0
    0.2667    2.3500    0.0000 C   0  0  0  0  0  0  0  0  0  0  0  0
    2.8917    4.2917    0.0000 C   0  0  0  0  0  0  0  0  0  0  0  0
    6.2667    3.6500    0.0000 C   0  0  0  0  0  0  0  0  0  0  0  0
    0.6417    3.0000    0.0000 C   0  0  0  0  0  0  0  0  0  0  0  0
    2.5167    3.6500    0.0000 C   0  0  0  0  0  0  0  0  0  0  0  0
    7.0167    2.3500    0.0000 C   0  0  0  0  0  0  0  0  0  0  0  0
    6.2667    1.0583    0.0000 C   0  0  0  0  0  0  0  0  0  0  0  0
    7.0167    3.6500    0.0000 C   0  0  0  0  0  0  0  0  0  0  0  0
    7.3917    3.0000    0.0000 C   0  0  0  0  0  0  0  0  0  0  0  0
  2  1  1  0  0  0  0
  3  2  2  0  0  0  0
  4  7  1  0  0  0  0
  5  4  1  0  0  0  0
  6  3  1  0  0  0  0
  7 13  1  0  0  0  0
  8  5  1  0  0  0  0
  9  1  1  0  0  0  0
 10  1  2  0  0  0  0
 11  3  1  0  0  0  0
 11 23  2  0  0  0  0
 12  4  2  0  0  0  0
 13 14  2  0  0  0  0
 14  6  1  0  0  0  0
 15  8  1  0  0  0  0
 16  2  1  0  0  0  0
 17 11  1  0  0  0  0
 18 15  1  0  0  0  0
 19 21  1  0  0  0  0
 19  7  2  0  0  0  0
 20 16  2  0  0  0  0
 21 24  2  0  0  0  0
 22  8  2  0  0  0  0
 23 20  1  0  0  0  0
 24 14  1  0  0  0  0
 25 15  2  0  0  0  0
 26 18  1  0  0  0  0
 27 22  1  0  0  0  0
 28 27  2  0  0  0  0
 28 25  1  0  0  0  0
M  CHG  2   1   1   9  -1
M  END
>  <ID>
9008458

>  <Supplier>
ChemBridge

>  <clogP>
4.180000000000000e+000

>  <RB>
4

>  <tPSA>
9.070000000000000e+001

>  <Hacc>
5

>  <Hdon>
1

>  <LogSw>
-6.066999999999998e+000

>  <Group>
1

>  <Core>
511

$$$$
5964614
 OpenBabel03312015312D

 19 21  0  0  0  0  0  0  0  0999 V2000
    6.1667    2.1625    0.0000 C   0  0  0  0  0  0  0  0  0  0  0  0
    4.9042    2.9083    0.0000 C   0  0  0  0  0  0  0  0  0  0  0  0
    3.6542    2.1750    0.0000 C   0  0  0  0  0  0  0  0  0  0  0  0
    7.3792    2.8833    0.0000 C   0  0  0  0  0  0  0  0  0  0  0  0
    6.1542    0.7208    0.0000 C   0  0  0  0  0  0  0  0  0  0  0  0
    4.8917    0.0000    0.0000 O   0  0  0  0  0  0  0  0  0  0  0  0
    8.5917    2.1833    0.0000 C   0  0  0  0  0  0  0  0  0  0  0  0
    3.6667    0.7625    0.0000 C   0  0  0  0  0  0  0  0  0  0  0  0
    9.6917    3.0583    0.0000 O   0  0  0  0  0  0  0  0  0  0  0  0
    2.4292    2.8833    0.0000 C   0  0  0  0  0  0  0  0  0  0  0  0
    4.9042    4.1042    0.0000 O   0  0  0  0  0  0  0  0  0  0  0  0
    7.3792    4.1042    0.0000 O   0  0  0  0  0  0  0  0  0  0  0  0
    9.0792    0.8708    0.0000 C   0  0  0  0  0  0  0  0  0  0  0  0
   10.8542    2.2750    0.0000 C   0  0  0  0  0  0  0  0  0  0  0  0
   10.4667    0.9083    0.0000 C   0  0  0  0  0  0  0  0  0  0  0  0
    2.4375    0.0583    0.0000 C   0  0  0  0  0  0  0  0  0  0  0  0
    1.2167    2.1833    0.0000 C   0  0  0  0  0  0  0  0  0  0  0  0
    1.2167    0.7625    0.0000 C   0  0  0  0  0  0  0  0  0  0  0  0
    0.0000    2.8958    0.0000 Cl  0  0  0  0  0  0  0  0  0  0  0  0
  2  1  1  0  0  0  0
  3  2  1  0  0  0  0
  4  1  1  0  0  0  0
  5  1  2  0  0  0  0
  6  5  1  0  0  0  0
  7  4  1  0  0  0  0
  8  6  1  0  0  0  0
  8  3  2  0  0  0  0
  9  7  1  0  0  0  0
 10  3  1  0  0  0  0
 11  2  2  0  0  0  0
 12  4  2  0  0  0  0
 13  7  2  0  0  0  0
 14  9  1  0  0  0  0
 15 13  1  0  0  0  0
 15 14  2  0  0  0  0
 16  8  1  0  0  0  0
 17 10  2  0  0  0  0
 18 16  2  0  0  0  0
 18 17  1  0  0  0  0
 19 17  1  0  0  0  0
M  END
>  <ID>
5964614

>  <Supplier>
ChemBridge

>  <clogP>
2.460000000000000e+000

>  <RB>
2

>  <tPSA>
6.042000000000000e+001

>  <Hacc>
4

>  <Hdon>
0

>  <LogSw>
-3.304000000000000e+000

>  <Group>
3

$$$$
7692024
 OpenBabel03312015312D

 20 21  0  0  0  0  0  0  0  0999 V2000
    6.0792   -4.1167    0.0000 N   0  0  0  0  0  0  0  0  0  0  0  0
    6.2375   -2.7042    0.0000 N   0  0  0  0  0  0  0  0  0  0  0  0
    6.5667   -3.4542    0.0000 C   0  0  0  0  0  0  0  0  0  0  0  0
    5.4167   -2.6167    0.0000 C   0  0  0  0  0  0  0  0  0  0  0  0
    5.2667   -4.0375    0.0000 C   0  0  0  0  0  0  0  0  0  0  0  0
    4.9375   -3.2792    0.0000 C   0  0  0  0  0  0  0  0  0  0  0  0
    8.6167   -2.8167    0.0000 C   0  0  0  0  0  0  0  0  0  0  0  0
    7.3875   -3.5417    0.0000 S   0  0  0  0  0  0  0  0  0  0  0  0
    9.4375   -2.8125    0.0000 N   0  0  0  0  0  0  0  0  0  0  0  0
    8.2000   -2.1042    0.0000 O   0  0  0  0  0  0  0  0  0  0  0  0
    8.2125   -3.5417    0.0000 C   0  0  0  0  0  0  0  0  0  0  0  0
    5.0917   -1.8667    0.0000 N   0  0  0  0  0  0  0  0  0  0  0  0
    4.7875   -4.7000    0.0000 N   0  0  0  0  0  0  0  0  0  0  0  0
    9.8417   -2.0917    0.0000 C   0  0  0  0  0  0  0  0  0  0  0  0
   10.6542   -0.6542    0.0000 C   0  0  0  0  0  0  0  0  0  0  0  0
   11.0625    0.0708    0.0000 F   0  0  0  0  0  0  0  0  0  0  0  0
    9.4250   -1.3792    0.0000 C   0  0  0  0  0  0  0  0  0  0  0  0
   10.6750   -2.0792    0.0000 C   0  0  0  0  0  0  0  0  0  0  0  0
    9.8292   -0.6542    0.0000 C   0  0  0  0  0  0  0  0  0  0  0  0
   11.0750   -1.3667    0.0000 C   0  0  0  0  0  0  0  0  0  0  0  0
  2  3  2  0  0  0  0
  3  1  1  0  0  0  0
  4  6  2  0  0  0  0
  4  2  1  0  0  0  0
  5  1  2  0  0  0  0
  6  5  1  0  0  0  0
  7 11  1  0  0  0  0
  8  3  1  0  0  0  0
  9  7  1  0  0  0  0
 10  7  2  0  0  0  0
 11  8  1  0  0  0  0
 12  4  1  0  0  0  0
 13  5  1  0  0  0  0
 14  9  1  0  0  0  0
 15 20  2  0  0  0  0
 16 15  1  0  0  0  0
 17 14  1  0  0  0  0
 18 14  2  0  0  0  0
 19 17  2  0  0  0  0
 19 15  1  0  0  0  0
 20 18  1  0  0  0  0
M  END
>  <ID>
7692024

>  <Supplier>
ChemBridge

>  <clogP>
1.805000000000000e+000

>  <RB>
4

>  <tPSA>
1.069200000000000e+002

>  <Hacc>
3

>  <Hdon>
3

>  <LogSw>
-2.407000000000000e+000

>  <Group>
2

>  <Core>
016

$$$$
5377487
 OpenBabel03312015312D

 22 24  0  0  0  0  0  0  0  0999 V2000
   -1.8958   -0.6667    0.0000 N   0  0  0  0  0  0  0  0  0  0  0  0
   -1.3458   -1.0500    0.0000 C   0  0  0  0  0  0  0  0  0  0  0  0
   -2.4208   -1.0500    0.0000 C   0  0  0  0  0  0  0  0  0  0  0  0
   -1.5500   -1.7042    0.0000 S   0  0  0  0  0  0  0  0  0  0  0  0
   -2.2208   -1.7042    0.0000 C   0  0  0  0  0  0  0  0  0  0  0  0
   -0.5958   -0.1542    0.0000 N   0  0  0  0  0  0  0  0  0  0  0  0
   -3.0333   -0.8167    0.0000 C   0  0  0  0  0  0  0  0  0  0  0  0
   -0.7000   -0.8167    0.0000 N   0  0  0  0  0  0  0  0  0  0  0  0
   -3.1333   -0.1667    0.0000 C   0  0  0  0  0  0  0  0  0  0  0  0
   -3.5458   -1.2292    0.0000 C   0  0  0  0  0  0  0  0  0  0  0  0
    0.0292    0.0708    0.0000 C   0  0  0  0  0  0  0  0  0  0  0  0
   -4.2708   -0.3500    0.0000 C   0  0  0  0  0  0  0  0  0  0  0  0
    0.1375    0.7458    0.0000 C   0  0  0  0  0  0  0  0  0  0  0  0
    0.3375    2.0833    0.0000 C   0  0  0  0  0  0  0  0  0  0  0  0
   -3.7500    0.0625    0.0000 C   0  0  0  0  0  0  0  0  0  0  0  0
   -4.1625   -0.9875    0.0000 C   0  0  0  0  0  0  0  0  0  0  0  0
    0.4042    2.7458    0.0000 Br  0  0  0  0  0  0  0  0  0  0  0  0
   -4.8708   -0.1167    0.0000 Cl  0  0  0  0  0  0  0  0  0  0  0  0
   -0.2708    1.8333    0.0000 C   0  0  0  0  0  0  0  0  0  0  0  0
    0.8667    1.6500    0.0000 C   0  0  0  0  0  0  0  0  0  0  0  0
    0.7667    0.9958    0.0000 C   0  0  0  0  0  0  0  0  0  0  0  0
   -0.3708    1.1625    0.0000 C   0  0  0  0  0  0  0  0  0  0  0  0
  2  1  2  0  0  0  0
  3  1  1  0  0  0  0
  4  2  1  0  0  0  0
  4  5  1  0  0  0  0
  5  3  2  0  0  0  0
  6  8  1  0  0  0  0
  7  3  1  0  0  0  0
  8  2  1  0  0  0  0
  9  7  2  0  0  0  0
 10  7  1  0  0  0  0
 11  6  2  0  0  0  0
 12 16  1  0  0  0  0
 13 11  1  0  0  0  0
 14 19  1  0  0  0  0
 14 20  2  0  0  0  0
 15  9  1  0  0  0  0
 15 12  2  0  0  0  0
 16 10  2  0  0  0  0
 17 14  1  0  0  0  0
 18 12  1  0  0  0  0
 19 22  2  0  0  0  0
 20 21  1  0  0  0  0
 21 13  2  0  0  0  0
 22 13  1  0  0  0  0
M  END
>  <ID>
5377487

>  <Supplier>
ChemBridge

>  <clogP>
6.370000000000000e+000

>  <RB>
4

>  <tPSA>
3.728000000000000e+001

>  <Hacc>
2

>  <Hdon>
1

>  <LogSw>
-7.503000000000000e+000

>  <Group>
1

$$$$
5377486
 OpenBabel03312015312D

 17 18  0  0  0  0  0  0  0  0999 V2000
    0.5542   -1.2292    0.0000 N   0  0  0  0  0  0  0  0  0  0  0  0
    0.2667   -2.1667    0.0000 C   0  0  0  0  0  0  0  0  0  0  0  0
    1.5042   -1.2292    0.0000 C   0  0  0  0  0  0  0  0  0  0  0  0
    0.0042   -0.4500    0.0000 C   0  0  0  0  0  0  0  0  0  0  0  0
    1.0667   -2.7167    0.0000 S   0  0  0  0  0  0  0  0  0  0  0  0
   -0.9500   -0.5292    0.0000 N   0  0  0  0  0  0  0  0  0  0  0  0
    1.8500   -2.1167    0.0000 C   0  0  0  0  0  0  0  0  0  0  0  0
   -1.5000    0.2625    0.0000 C   0  0  0  0  0  0  0  0  0  0  0  0
   -2.4500    0.1958    0.0000 C   0  0  0  0  0  0  0  0  0  0  0  0
   -0.6333   -2.4875    0.0000 O   0  0  0  0  0  0  0  0  0  0  0  0
    2.0500   -0.4375    0.0000 O   0  0  0  0  0  0  0  0  0  0  0  0
   -3.0125    0.9625    0.0000 C   0  0  0  0  0  0  0  0  0  0  0  0
   -1.1125    1.1458    0.0000 C   0  0  0  0  0  0  0  0  0  0  0  0
   -2.6208    1.8458    0.0000 C   0  0  0  0  0  0  0  0  0  0  0  0
   -1.6625    1.9208    0.0000 C   0  0  0  0  0  0  0  0  0  0  0  0
   -2.8500   -0.6667    0.0000 C   0  0  0  0  0  0  0  0  0  0  0  0
   -3.1708    2.6125    0.0000 C   0  0  0  0  0  0  0  0  0  0  0  0
  2  1  1  0  0  0  0
  3  1  1  0  0  0  0
  4  1  1  0  0  0  0
  5  2  1  0  0  0  0
  5  7  1  0  0  0  0
  6  4  1  0  0  0  0
  7  3  1  0  0  0  0
  8  6  1  0  0  0  0
  9  8  1  0  0  0  0
 10  2  2  0  0  0  0
 11  3  2  0  0  0  0
 12  9  2  0  0  0  0
 13  8  2  0  0  0  0
 14 15  2  0  0  0  0
 14 12  1  0  0  0  0
 15 13  1  0  0  0  0
 16  9  1  0  0  0  0
 17 14  1  0  0  0  0
M  END
>  <ID>
5377486

>  <Supplier>
ChemBridge

>  <clogP>
1.560000000000000e+000

>  <RB>
3

>  <tPSA>
4.941000000000002e+001

>  <Hacc>
2

>  <Hdon>
1

>  <LogSw>
-2.359000000000000e+000

>  <Group>
3

$$$$
5748717
 OpenBabel03312015312D

 23 25  0  0  0  0  0  0  0  0999 V2000
    4.5792   -2.1250    0.0000 C   0  0  0  0  0  0  0  0  0  0  0  0
    5.2292   -2.5000    0.0000 C   0  0  0  0  0  0  0  0  0  0  0  0
    4.5792   -1.3750    0.0000 N   0  0  0  0  0  0  0  0  0  0  0  0
    5.8792   -2.1292    0.0000 C   0  0  0  0  0  0  0  0  0  0  0  0
    3.9292   -2.5000    0.0000 O   0  0  0  0  0  0  0  0  0  0  0  0
    0.0292   -1.0042    0.0000 N   0  0  0  0  0  0  0  0  0  0  0  0
    3.9292   -1.0000    0.0000 C   0  0  0  0  0  0  0  0  0  0  0  0
    2.6292   -0.2500    0.0000 C   0  0  0  0  0  0  0  0  0  0  0  0
    5.8792   -1.3792    0.0000 F   0  0  0  0  0  0  0  0  0  0  0  0
    1.9792    0.1250    0.0000 C   0  0  0  0  0  0  0  0  0  0  0  0
    5.2292   -3.2500    0.0000 C   0  0  0  0  0  0  0  0  0  0  0  0
    3.9292   -0.2500    0.0000 C   0  0  0  0  0  0  0  0  0  0  0  0
    3.2792   -1.3750    0.0000 C   0  0  0  0  0  0  0  0  0  0  0  0
    3.2792    0.1250    0.0000 C   0  0  0  0  0  0  0  0  0  0  0  0
    2.6292   -1.0000    0.0000 C   0  0  0  0  0  0  0  0  0  0  0  0
    1.3292   -0.2500    0.0000 C   0  0  0  0  0  0  0  0  0  0  0  0
    0.6792   -1.3792    0.0000 C   0  0  0  0  0  0  0  0  0  0  0  0
    0.0292   -0.2500    0.0000 C   0  0  0  0  0  0  0  0  0  0  0  0
    6.5292   -2.5042    0.0000 C   0  0  0  0  0  0  0  0  0  0  0  0
    0.6792    0.1333    0.0000 C   0  0  0  0  0  0  0  0  0  0  0  0
    1.3292   -1.0042    0.0000 C   0  0  0  0  0  0  0  0  0  0  0  0
    5.8792   -3.6292    0.0000 C   0  0  0  0  0  0  0  0  0  0  0  0
    6.5292   -3.2542    0.0000 C   0  0  0  0  0  0  0  0  0  0  0  0
  2  1  1  0  0  0  0
  3  1  1  0  0  0  0
  4  2  2  0  0  0  0
  5  1  2  0  0  0  0
  6 17  2  0  0  0  0
  7  3  1  0  0  0  0
  8 15  1  0  0  0  0
  9  4  1  0  0  0  0
 10  8  1  0  0  0  0
 11  2  1  0  0  0  0
 12  7  2  0  0  0  0
 13  7  1  0  0  0  0
 14 12  1  0  0  0  0
 14  8  2  0  0  0  0
 15 13  2  0  0  0  0
 16 10  1  0  0  0  0
 17 21  1  0  0  0  0
 18 20  2  0  0  0  0
 18  6  1  0  0  0  0
 19  4  1  0  0  0  0
 20 16  1  0  0  0  0
 21 16  2  0  0  0  0
 22 11  2  0  0  0  0
 23 22  1  0  0  0  0
 23 19  2  0  0  0  0
M  END
>  <ID>
5748717

>  <Supplier>
ChemBridge

>  <clogP>
3.150000000000000e+000

>  <RB>
4

>  <tPSA>
4.199000000000000e+001

>  <Hacc>
2

>  <Hdon>
1

>  <LogSw>
-2.824000000000000e+000

>  <Group>
1

$$$$
5714627
 OpenBabel03312015312D

 20 22  0  0  0  0  0  0  0  0999 V2000
    0.2667    0.6458    0.0000 N   0  0  0  0  0  0  0  0  0  0  0  0
    1.2000    0.9000    0.0000 C   0  0  0  0  0  0  0  0  0  0  0  0
   -0.2625    1.4458    0.0000 C   0  0  0  0  0  0  0  0  0  0  0  0
    1.2667    1.8708    0.0000 S   0  0  0  0  0  0  0  0  0  0  0  0
    0.3667    2.2458    0.0000 C   0  0  0  0  0  0  0  0  0  0  0  0
    1.9500    0.3000    0.0000 N   0  0  0  0  0  0  0  0  0  0  0  0
   -1.2333    1.4458    0.0000 C   0  0  0  0  0  0  0  0  0  0  0  0
   -1.7125    2.3000    0.0000 C   0  0  0  0  0  0  0  0  0  0  0  0
   -1.7333    0.5958    0.0000 C   0  0  0  0  0  0  0  0  0  0  0  0
    2.8500    0.6458    0.0000 C   0  0  0  0  0  0  0  0  0  0  0  0
   -3.1958    1.4458    0.0000 C   0  0  0  0  0  0  0  0  0  0  0  0
   -2.6958    2.3000    0.0000 C   0  0  0  0  0  0  0  0  0  0  0  0
   -2.7208    0.5958    0.0000 C   0  0  0  0  0  0  0  0  0  0  0  0
   -4.1583    1.4458    0.0000 O   0  0  0  0  0  0  0  0  0  0  0  0
    3.6292    0.0458    0.0000 C   0  0  0  0  0  0  0  0  0  0  0  0
    3.0000    1.5958    0.0000 C   0  0  0  0  0  0  0  0  0  0  0  0
   -4.6125    2.2708    0.0000 C   0  0  0  0  0  0  0  0  0  0  0  0
    3.9000    1.9625    0.0000 C   0  0  0  0  0  0  0  0  0  0  0  0
    4.5167    0.4000    0.0000 C   0  0  0  0  0  0  0  0  0  0  0  0
    4.6667    1.3708    0.0000 C   0  0  0  0  0  0  0  0  0  0  0  0
  2  1  2  0  0  0  0
  3  1  1  0  0  0  0
  4  2  1  0  0  0  0
  4  5  1  0  0  0  0
  5  3  2  0  0  0  0
  6  2  1  0  0  0  0
  7  3  1  0  0  0  0
  8  7  1  0  0  0  0
  9  7  2  0  0  0  0
 10  6  1  0  0  0  0
 11 13  2  0  0  0  0
 11 12  1  0  0  0  0
 12  8  2  0  0  0  0
 13  9  1  0  0  0  0
 14 11  1  0  0  0  0
 15 10  2  0  0  0  0
 16 10  1  0  0  0  0
 17 14  1  0  0  0  0
 18 16  2  0  0  0  0
 19 15  1  0  0  0  0
 19 20  2  0  0  0  0
 20 18  1  0  0  0  0
M  END
>  <ID>
5714627

>  <Supplier>
ChemBridge

>  <clogP>
5.109999999999999e+000

>  <RB>
3

>  <tPSA>
3.415000000000000e+001

>  <Hacc>
2

>  <Hdon>
1

>  <LogSw>
-5.623999999999998e+000

>  <Group>
3

>  <Core>
225

$$$$
9008453
 OpenBabel03312015312D

 25 27  0  0  0  0  0  0  0  0999 V2000
    6.3292    3.4833    0.0000 C   0  0  0  0  0  0  0  0  0  0  0  0
    5.9542    2.8333    0.0000 N   0  0  0  0  0  0  0  0  0  0  0  0
    7.0792    3.4833    0.0000 C   0  0  0  0  0  0  0  0  0  0  0  0
    8.5792    2.1833    0.0000 N   0  3  0  0  0  0  0  0  0  0  0  0
    7.4542    2.8333    0.0000 C   0  0  0  0  0  0  0  0  0  0  0  0
    5.2042    2.8333    0.0000 C   0  0  0  0  0  0  0  0  0  0  0  0
    8.2042    2.8333    0.0000 C   0  0  0  0  0  0  0  0  0  0  0  0
    7.4542    4.1250    0.0000 C   0  0  0  0  0  0  0  0  0  0  0  0
    9.3292    2.1833    0.0000 O   0  5  0  0  0  0  0  0  0  0  0  0
    5.9542    4.1250    0.0000 O   0  0  0  0  0  0  0  0  0  0  0  0
    8.2042    1.5333    0.0000 O   0  0  0  0  0  0  0  0  0  0  0  0
    4.8292    2.1833    0.0000 C   0  0  0  0  0  0  0  0  0  0  0  0
    8.5792    3.4833    0.0000 C   0  0  0  0  0  0  0  0  0  0  0  0
    8.2042    4.1250    0.0000 C   0  0  0  0  0  0  0  0  0  0  0  0
    6.3292    2.1833    0.0000 C   0  0  0  0  0  0  0  0  0  0  0  0
    7.0792    4.7750    0.0000 N   0  0  0  0  0  0  0  0  0  0  0  0
    4.8292    3.4833    0.0000 C   0  0  0  0  0  0  0  0  0  0  0  0
    5.9542    1.5333    0.0000 C   0  0  0  0  0  0  0  0  0  0  0  0
    5.2042    1.5333    0.0000 C   0  0  0  0  0  0  0  0  0  0  0  0
    4.0792    2.1833    0.0000 C   0  0  0  0  0  0  0  0  0  0  0  0
    7.4542    5.4167    0.0000 C   0  0  0  0  0  0  0  0  0  0  0  0
    7.0792    6.0750    0.0000 C   0  0  0  0  0  0  0  0  0  0  0  0
    4.0792    3.4833    0.0000 C   0  0  0  0  0  0  0  0  0  0  0  0
    7.4542    6.7167    0.0000 C   0  0  0  0  0  0  0  0  0  0  0  0
    3.7042    2.8333    0.0000 C   0  0  0  0  0  0  0  0  0  0  0  0
  2  1  1  0  0  0  0
  3  1  1  0  0  0  0
  4  7  1  0  0  0  0
  5  3  1  0  0  0  0
  6  2  1  0  0  0  0
  7  5  2  0  0  0  0
  7 13  1  0  0  0  0
  8  3  2  0  0  0  0
  9  4  1  0  0  0  0
 10  1  2  0  0  0  0
 11  4  2  0  0  0  0
 12  6  1  0  0  0  0
 12 19  1  0  0  0  0
 13 14  2  0  0  0  0
 14  8  1  0  0  0  0
 15  2  1  0  0  0  0
 16  8  1  0  0  0  0
 17  6  2  0  0  0  0
 18 15  1  0  0  0  0
 19 18  1  0  0  0  0
 20 12  2  0  0  0  0
 20 25  1  0  0  0  0
 21 16  1  0  0  0  0
 22 21  1  0  0  0  0
 23 17  1  0  0  0  0
 24 22  1  0  0  0  0
 25 23  2  0  0  0  0
M  CHG  2   4   1   9  -1
M  END
>  <ID>
9008453

>  <Supplier>
ChemBridge

>  <clogP>
4.230000000000000e+000

>  <RB>
2

>  <tPSA>
7.548000000000000e+001

>  <Hacc>
3

>  <Hdon>
1

>  <LogSw>
-5.287000000000000e+000

>  <Group>
2

$$$$
9008455
 OpenBabel03312015312D

 16 18  0  0  0  0  0  0  0  0999 V2000
    2.5292    1.2583    0.0000 C   0  0  0  0  0  0  0  0  0  0  0  0
    1.8417    1.5708    0.0000 O   0  0  0  0  0  0  0  0  0  0  0  0
    2.4417    0.5125    0.0000 N   0  0  0  0  0  0  0  0  0  0  0  0
    1.7167    0.3583    0.0000 N   0  0  0  0  0  0  0  0  0  0  0  0
    1.3417    1.0083    0.0000 C   0  0  0  0  0  0  0  0  0  0  0  0
    3.8250    1.2583    0.0000 N   0  0  0  0  0  0  0  0  0  0  0  0
    3.1792    1.6333    0.0000 C   0  0  0  0  0  0  0  0  0  0  0  0
    4.4750    1.6333    0.0000 C   0  0  0  0  0  0  0  0  0  0  0  0
    3.1792    2.3833    0.0000 C   0  0  0  0  0  0  0  0  0  0  0  0
    0.5917    1.0875    0.0000 S   0  0  0  0  0  0  0  0  0  0  0  0
    4.4750    2.3833    0.0000 C   0  0  0  0  0  0  0  0  0  0  0  0
    3.8250    2.7583    0.0000 C   0  0  0  0  0  0  0  0  0  0  0  0
    5.1250    1.2583    0.0000 C   0  0  0  0  0  0  0  0  0  0  0  0
    5.1250    2.7583    0.0000 C   0  0  0  0  0  0  0  0  0  0  0  0
    5.7750    1.6333    0.0000 C   0  0  0  0  0  0  0  0  0  0  0  0
    5.7750    2.3833    0.0000 C   0  0  0  0  0  0  0  0  0  0  0  0
  2  1  1  0  0  0  0
  3  1  2  0  0  0  0
  4  3  1  0  0  0  0
  5  2  1  0  0  0  0
  5  4  2  0  0  0  0
  6  7  2  0  0  0  0
  7  1  1  0  0  0  0
  8  6  1  0  0  0  0
  9  7  1  0  0  0  0
 10  5  1  0  0  0  0
 11 12  1  0  0  0  0
 11  8  2  0  0  0  0
 12  9  2  0  0  0  0
 13  8  1  0  0  0  0
 14 11  1  0  0  0  0
 15 13  2  0  0  0  0
 16 14  2  0  0  0  0
 16 15  1  0  0  0  0
M  END
>  <ID>
9008455

>  <Supplier>
ChemBridge

>  <clogP>
1.920000000000000e+000

>  <RB>
1

>  <tPSA>
5.181000000000000e+001

>  <Hacc>
4

>  <Hdon>
0

>  <LogSw>
-2.513000000000000e+000

>  <Group>
1

$$$$
5489455
 OpenBabel03312015312D

 22 23  0  0  0  0  0  0  0  0999 V2000
   -1.7208    0.7625    0.0000 C   0  0  0  0  0  0  0  0  0  0  0  0
   -0.1208    1.7000    0.0000 C   0  0  0  0  0  0  0  0  0  0  0  0
   -2.5333    0.2958    0.0000 C   0  0  0  0  0  0  0  0  0  0  0  0
   -1.7208    1.6958    0.0000 N   0  0  0  0  0  0  0  0  0  0  0  0
   -0.9208    2.1625    0.0000 N   0  0  0  0  0  0  0  0  0  0  0  0
    0.6667    2.1625    0.0000 C   0  0  0  0  0  0  0  0  0  0  0  0
    1.4792    1.7125    0.0000 C   0  0  0  0  0  0  0  0  0  0  0  0
    2.2792    2.1708    0.0000 C   0  0  0  0  0  0  0  0  0  0  0  0
    2.2792    3.1083    0.0000 C   0  0  0  0  0  0  0  0  0  0  0  0
   -0.9208    0.2958    0.0000 O   0  0  0  0  0  0  0  0  0  0  0  0
   -0.1125    0.7833    0.0000 O   0  0  0  0  0  0  0  0  0  0  0  0
   -3.3458   -1.1167    0.0000 N   0  0  0  0  0  0  0  0  0  0  0  0
    0.6667    3.0958    0.0000 C   0  0  0  0  0  0  0  0  0  0  0  0
    1.4792    3.5625    0.0000 C   0  0  0  0  0  0  0  0  0  0  0  0
   -2.5333   -0.6500    0.0000 C   0  0  0  0  0  0  0  0  0  0  0  0
    3.0792    1.7000    0.0000 O   0  0  0  0  0  0  0  0  0  0  0  0
    3.0792    3.5708    0.0000 O   0  0  0  0  0  0  0  0  0  0  0  0
   -3.3458    0.7625    0.0000 C   0  0  0  0  0  0  0  0  0  0  0  0
   -4.1583   -0.6500    0.0000 C   0  0  0  0  0  0  0  0  0  0  0  0
    3.0792    0.7958    0.0000 C   0  0  0  0  0  0  0  0  0  0  0  0
    3.8667    3.1208    0.0000 C   0  0  0  0  0  0  0  0  0  0  0  0
   -4.1583    0.2958    0.0000 C   0  0  0  0  0  0  0  0  0  0  0  0
  2  5  1  0  0  0  0
  3  1  1  0  0  0  0
  4  1  1  0  0  0  0
  5  4  1  0  0  0  0
  6  2  1  0  0  0  0
  7  6  2  0  0  0  0
  8  7  1  0  0  0  0
  9 14  1  0  0  0  0
  9  8  2  0  0  0  0
 10  1  2  0  0  0  0
 11  2  2  0  0  0  0
 12 15  1  0  0  0  0
 13  6  1  0  0  0  0
 14 13  2  0  0  0  0
 15  3  2  0  0  0  0
 16  8  1  0  0  0  0
 17  9  1  0  0  0  0
 18  3  1  0  0  0  0
 19 22  1  0  0  0  0
 19 12  2  0  0  0  0
 20 16  1  0  0  0  0
 21 17  1  0  0  0  0
 22 18  2  0  0  0  0
M  END
>  <ID>
5489455

>  <Supplier>
ChemBridge

>  <clogP>
2.620000000000000e+000

>  <RB>
3

>  <tPSA>
8.955000000000004e+001

>  <Hacc>
5

>  <Hdon>
2

>  <LogSw>
-3.635000000000000e+000

>  <Group>
1

>  <Core>
442

$$$$
6249789
 OpenBabel03312015312D

 30 32  0  0  0  0  0  0  0  0999 V2000
    1.2125   -0.0250    0.0000 N   0  0  0  0  0  0  0  0  0  0  0  0
    1.7917    1.1500    0.0000 N   0  0  0  0  0  0  0  0  0  0  0  0
    1.8417    0.3958    0.0000 C   0  0  0  0  0  0  0  0  0  0  0  0
    0.4917    1.0708    0.0000 C   0  0  3  0  0  0  0  0  0  0  0  0
    0.5375    0.3125    0.0000 C   0  0  0  0  0  0  0  0  0  0  0  0
    2.3375    1.7708    0.0000 N   0  0  0  0  0  0  0  0  0  0  0  0
   -0.1333    1.6125    0.0000 C   0  0  0  0  0  0  0  0  0  0  0  0
    3.1542    1.6083    0.0000 C   0  0  0  0  0  0  0  0  0  0  0  0
    1.2625   -0.7750    0.0000 C   0  0  0  0  0  0  0  0  0  0  0  0
    2.5167    0.0583    0.0000 S   0  0  0  0  0  0  0  0  0  0  0  0
   -0.9208    1.3458    0.0000 C   0  0  0  0  0  0  0  0  0  0  0  0
   -0.0958   -0.1042    0.0000 O   0  0  0  0  0  0  0  0  0  0  0  0
    3.6917    2.2250    0.0000 C   0  0  0  0  0  0  0  0  0  0  0  0
    3.4167    0.8250    0.0000 O   0  0  0  0  0  0  0  0  0  0  0  0
   -1.0833    0.5333    0.0000 O   0  0  0  0  0  0  0  0  0  0  0  0
    4.5042    2.0708    0.0000 C   0  0  0  0  0  0  0  0  0  0  0  0
    3.4292    3.0083    0.0000 C   0  0  0  0  0  0  0  0  0  0  0  0
   -1.5375    1.8958    0.0000 N   0  0  0  0  0  0  0  0  0  0  0  0
    4.7792    3.4833    0.0000 C   0  0  0  0  0  0  0  0  0  0  0  0
    2.0000   -1.1417    0.0000 C   0  0  0  0  0  0  0  0  0  0  0  0
    5.0500    2.6875    0.0000 C   0  0  0  0  0  0  0  0  0  0  0  0
    3.9667    3.6333    0.0000 C   0  0  0  0  0  0  0  0  0  0  0  0
    5.3250    4.0917    0.0000 Br  0  0  0  0  0  0  0  0  0  0  0  0
   -2.3250    1.6333    0.0000 C   0  0  0  0  0  0  0  0  0  0  0  0
    2.0500   -1.9667    0.0000 C   0  0  0  0  0  0  0  0  0  0  0  0
    2.6792   -0.6875    0.0000 C   0  0  0  0  0  0  0  0  0  0  0  0
   -2.9458    2.1833    0.0000 C   0  0  0  0  0  0  0  0  0  0  0  0
    3.4250   -1.0500    0.0000 C   0  0  0  0  0  0  0  0  0  0  0  0
    2.7917   -2.3292    0.0000 C   0  0  0  0  0  0  0  0  0  0  0  0
    3.4792   -1.8750    0.0000 C   0  0  0  0  0  0  0  0  0  0  0  0
  2  3  1  0  0  0  0
  3  1  1  0  0  0  0
  4  5  1  0  0  0  0
  4  2  1  0  0  0  0
  5  1  1  0  0  0  0
  6  2  1  0  0  0  0
  7  4  1  0  0  0  0
  8  6  1  0  0  0  0
  9  1  1  0  0  0  0
 10  3  2  0  0  0  0
 11  7  1  0  0  0  0
 12  5  2  0  0  0  0
 13  8  1  0  0  0  0
 14  8  2  0  0  0  0
 15 11  2  0  0  0  0
 16 13  1  0  0  0  0
 17 13  2  0  0  0  0
 18 11  1  0  0  0  0
 19 22  2  0  0  0  0
 20  9  1  0  0  0  0
 21 16  2  0  0  0  0
 21 19  1  0  0  0  0
 22 17  1  0  0  0  0
 23 19  1  0  0  0  0
 24 18  1  0  0  0  0
 25 20  2  0  0  0  0
 26 20  1  0  0  0  0
 27 24  1  0  0  0  0
 28 26  2  0  0  0  0
 29 25  1  0  0  0  0
 29 30  2  0  0  0  0
 30 28  1  0  0  0  0
M  END
>  <ID>
6249789

>  <Supplier>
ChemBridge

>  <clogP>
4.430000000000002e+000

>  <RB>
6

>  <tPSA>
8.175000000000000e+001

>  <Hacc>
3

>  <Hdon>
2

>  <LogSw>
-6.550000000000000e+000

>  <Group>
1

>  <Core>
350

$$$$
9008456
 OpenBabel03312015312D

 18 21  0  0  0  0  0  0  0  0999 V2000
    2.6042    2.4833    0.0000 C   0  0  0  0  0  0  0  0  0  0  0  0
    2.6042    1.7333    0.0000 N   0  0  0  0  0  0  0  0  0  0  0  0
    3.9042    1.7333    0.0000 C   0  0  0  0  0  0  0  0  0  0  0  0
    3.2542    2.8583    0.0000 N   0  0  0  0  0  0  0  0  0  0  0  0
    1.8917    2.7125    0.0000 N   0  0  0  0  0  0  0  0  0  0  0  0
    3.2542    1.3583    0.0000 C   0  0  0  0  0  0  0  0  0  0  0  0
    3.9042    2.4833    0.0000 C   0  0  0  0  0  0  0  0  0  0  0  0
    1.8917    1.5000    0.0000 C   0  0  0  0  0  0  0  0  0  0  0  0
    1.4542    2.1083    0.0000 C   0  0  0  0  0  0  0  0  0  0  0  0
    4.5542    1.3583    0.0000 C   0  0  0  0  0  0  0  0  0  0  0  0
    4.5542    0.6083    0.0000 O   0  0  0  0  0  0  0  0  0  0  0  0
    4.5542    2.8583    0.0000 C   0  0  0  0  0  0  0  0  0  0  0  0
    1.5917    0.8125    0.0000 C   0  0  0  0  0  0  0  0  0  0  0  0
    0.7042    2.0250    0.0000 C   0  0  0  0  0  0  0  0  0  0  0  0
    5.2042    1.7333    0.0000 C   0  0  0  0  0  0  0  0  0  0  0  0
    5.2042    2.4833    0.0000 C   0  0  0  0  0  0  0  0  0  0  0  0
    0.8417    0.7333    0.0000 C   0  0  0  0  0  0  0  0  0  0  0  0
    0.4042    1.3458    0.0000 C   0  0  0  0  0  0  0  0  0  0  0  0
  2  1  1  0  0  0  0
  3  7  1  0  0  0  0
  4  1  1  0  0  0  0
  5  1  2  0  0  0  0
  6  2  1  0  0  0  0
  6  3  2  0  0  0  0
  7  4  2  0  0  0  0
  8  2  1  0  0  0  0
  9  5  1  0  0  0  0
  9  8  1  0  0  0  0
 10  3  1  0  0  0  0
 11 10  2  0  0  0  0
 12  7  1  0  0  0  0
 13  8  2  0  0  0  0
 14  9  2  0  0  0  0
 15 16  1  0  0  0  0
 15 10  1  0  0  0  0
 16 12  1  0  0  0  0
 17 13  1  0  0  0  0
 18 14  1  0  0  0  0
 18 17  2  0  0  0  0
M  END
>  <ID>
9008456

>  <Supplier>
ChemBridge

>  <clogP>
2.020000000000000e+000

>  <RB>
0

>  <tPSA>
4.726000000000000e+001

>  <Hacc>
3

>  <Hdon>
0

>  <LogSw>
-3.766000000000000e+000

>  <Group>
2

$$$$
6574809
 OpenBabel03312015312D

 17 18  0  0  0  0  0  0  0  0999 V2000
    1.8625    0.3250    0.0000 C   0  0  0  0  0  0  0  0  0  0  0  0
    1.2125    0.7083    0.0000 C   0  0  0  0  0  0  0  0  0  0  0  0
    2.5792    0.7333    0.0000 N   0  0  0  0  0  0  0  0  0  0  0  0
    0.5625    0.3375    0.0000 C   0  0  0  0  0  0  0  0  0  0  0  0
   -0.0833    0.7208    0.0000 C   0  0  0  0  0  0  0  0  0  0  0  0
    1.8542   -0.5000    0.0000 O   0  0  0  0  0  0  0  0  0  0  0  0
    1.2167    1.4583    0.0000 C   0  0  0  0  0  0  0  0  0  0  0  0
   -0.0833    1.4708    0.0000 C   0  0  0  0  0  0  0  0  0  0  0  0
    0.5750    1.8375    0.0000 C   0  0  0  0  0  0  0  0  0  0  0  0
    3.2167    0.3583    0.0000 C   0  0  3  0  0  0  0  0  0  0  0  0
   -0.7375    0.3458    0.0000 C   0  0  0  0  0  0  0  0  0  0  0  0
   -0.7250    1.8458    0.0000 C   0  0  0  0  0  0  0  0  0  0  0  0
    3.8750    0.7333    0.0000 C   0  0  0  0  0  0  0  0  0  0  0  0
    3.2167   -0.3917    0.0000 C   0  0  0  0  0  0  0  0  0  0  0  0
    4.5250    0.3500    0.0000 C   0  0  0  0  0  0  0  0  0  0  0  0
   -1.3833    0.7333    0.0000 C   0  0  0  0  0  0  0  0  0  0  0  0
   -1.3833    1.4833    0.0000 C   0  0  0  0  0  0  0  0  0  0  0  0
  2  1  1  0  0  0  0
  3  1  1  0  0  0  0
  4  2  2  0  0  0  0
  5  4  1  0  0  0  0
  5  8  1  0  0  0  0
  6  1  2  0  0  0  0
  7  2  1  0  0  0  0
  8  9  1  0  0  0  0
  9  7  2  0  0  0  0
 10  3  1  0  0  0  0
 11  5  2  0  0  0  0
 12  8  2  0  0  0  0
 13 10  1  0  0  0  0
 14 10  1  0  0  0  0
 15 13  1  0  0  0  0
 16 11  1  0  0  0  0
 16 17  2  0  0  0  0
 17 12  1  0  0  0  0
M  END
>  <ID>
6574809

>  <Supplier>
ChemBridge

>  <clogP>
3.400000000000000e+000

>  <RB>
2

>  <tPSA>
2.910000000000000e+001

>  <Hacc>
1

>  <Hdon>
1

>  <LogSw>
-3.762000000000000e+000

>  <Group>
2

$$$$
7361773
 OpenBabel03312015312D

 23 24  0  0  0  0  0  0  0  0999 V2000
    6.4625   -3.8167    0.0000 S   0  0  0  0  0  0  0  0  0  0  0  0
    5.7417   -3.4042    0.0000 C   0  0  0  0  0  0  0  0  0  0  0  0
   11.4917   -3.4625    0.0000 S   0  0  0  0  0  0  0  0  0  0  0  0
    6.8750   -4.5375    0.0000 O   0  0  0  0  0  0  0  0  0  0  0  0
    6.0417   -4.5375    0.0000 O   0  0  0  0  0  0  0  0  0  0  0  0
   10.7417   -3.8000    0.0000 C   0  0  0  0  0  0  0  0  0  0  0  0
    7.1792   -3.4000    0.0000 N   0  0  0  0  0  0  0  0  0  0  0  0
    2.8667   -2.5750    0.0000 C   0  0  0  0  0  0  0  0  0  0  0  0
    3.5917   -2.1625    0.0000 N   0  0  0  0  0  0  0  0  0  0  0  0
   12.0417   -4.0667    0.0000 C   0  0  0  0  0  0  0  0  0  0  0  0
   10.8292   -4.6125    0.0000 C   0  0  0  0  0  0  0  0  0  0  0  0
   11.6375   -4.7792    0.0000 C   0  0  0  0  0  0  0  0  0  0  0  0
    2.8667   -3.4042    0.0000 O   0  0  0  0  0  0  0  0  0  0  0  0
    5.0167   -3.8167    0.0000 C   0  0  0  0  0  0  0  0  0  0  0  0
    5.7417   -2.5667    0.0000 C   0  0  0  0  0  0  0  0  0  0  0  0
    4.3042   -2.5750    0.0000 C   0  0  0  0  0  0  0  0  0  0  0  0
    7.8917   -3.8042    0.0000 C   0  0  0  0  0  0  0  0  0  0  0  0
    5.0167   -2.1542    0.0000 C   0  0  0  0  0  0  0  0  0  0  0  0
    4.3042   -3.4042    0.0000 C   0  0  0  0  0  0  0  0  0  0  0  0
    9.3167   -3.8042    0.0000 S   0  0  0  0  0  0  0  0  0  0  0  0
   10.0292   -3.3917    0.0000 C   0  0  0  0  0  0  0  0  0  0  0  0
    2.1542   -2.1625    0.0000 C   0  0  0  0  0  0  0  0  0  0  0  0
    8.6042   -3.3917    0.0000 C   0  0  0  0  0  0  0  0  0  0  0  0
  2  1  1  0  0  0  0
  3  6  1  0  0  0  0
  4  1  2  0  0  0  0
  5  1  2  0  0  0  0
  6 21  1  0  0  0  0
  7  1  1  0  0  0  0
  8  9  1  0  0  0  0
  9 16  1  0  0  0  0
 10  3  1  0  0  0  0
 11  6  2  0  0  0  0
 12 11  1  0  0  0  0
 12 10  2  0  0  0  0
 13  8  2  0  0  0  0
 14  2  2  0  0  0  0
 15  2  1  0  0  0  0
 16 18  1  0  0  0  0
 16 19  2  0  0  0  0
 17  7  1  0  0  0  0
 18 15  2  0  0  0  0
 19 14  1  0  0  0  0
 20 23  1  0  0  0  0
 21 20  1  0  0  0  0
 22  8  1  0  0  0  0
 23 17  1  0  0  0  0
M  END
>  <ID>
7361773

>  <Supplier>
ChemBridge

>  <clogP>
2.610000000000000e+000

>  <RB>
7

>  <tPSA>
7.527000000000000e+001

>  <Hacc>
4

>  <Hdon>
2

>  <LogSw>
-4.130000000000000e+000

>  <Group>
3

>  <Core>
234

$$$$
6209379
 OpenBabel03312015312D

 32 34  0  0  0  0  0  0  0  0999 V2000
    0.5417   -1.3500    0.0000 C   0  0  0  0  0  0  0  0  0  0  0  0
    4.5542   -0.5500    0.0000 C   0  0  0  0  0  0  0  0  0  0  0  0
   -0.7500   -0.5917    0.0000 C   0  0  0  0  0  0  0  0  0  0  0  0
    5.8500   -1.3042    0.0000 C   0  0  0  0  0  0  0  0  0  0  0  0
    5.2000   -1.6792    0.0000 C   0  0  0  0  0  0  0  0  0  0  0  0
   -0.1000   -0.2167    0.0000 C   0  0  0  0  0  0  0  0  0  0  0  0
    0.5417   -0.6000    0.0000 C   0  0  0  0  0  0  0  0  0  0  0  0
    4.5542   -1.3000    0.0000 C   0  0  0  0  0  0  0  0  0  0  0  0
    1.1917   -1.7250    0.0000 N   0  0  0  0  0  0  0  0  0  0  0  0
    3.9042   -0.1750    0.0000 N   0  0  0  0  0  0  0  0  0  0  0  0
   -0.1083   -1.7250    0.0000 O   0  0  0  0  0  0  0  0  0  0  0  0
    5.2042   -0.1792    0.0000 O   0  0  0  0  0  0  0  0  0  0  0  0
   -1.1333   -1.2417    0.0000 F   0  0  0  0  0  0  0  0  0  0  0  0
   -0.7583   -1.3417    0.0000 F   0  0  0  0  0  0  0  0  0  0  0  0
   -1.4000   -0.2167    0.0000 F   0  0  0  0  0  0  0  0  0  0  0  0
    5.8542   -0.5542    0.0000 F   0  0  0  0  0  0  0  0  0  0  0  0
    6.5000   -1.6875    0.0000 F   0  0  0  0  0  0  0  0  0  0  0  0
    6.2292   -0.6542    0.0000 F   0  0  0  0  0  0  0  0  0  0  0  0
    1.8750   -1.3292    0.0000 C   0  0  0  0  0  0  0  0  0  0  0  0
    3.2542   -0.5417    0.0000 C   0  0  0  0  0  0  0  0  0  0  0  0
    3.2542   -1.3375    0.0000 C   0  0  0  0  0  0  0  0  0  0  0  0
    2.5625   -1.7292    0.0000 C   0  0  0  0  0  0  0  0  0  0  0  0
    2.5667   -0.1417    0.0000 C   0  0  0  0  0  0  0  0  0  0  0  0
    1.8792   -0.5417    0.0000 C   0  0  0  0  0  0  0  0  0  0  0  0
   -0.0958    0.5333    0.0000 C   0  0  0  0  0  0  0  0  0  0  0  0
    5.1917   -2.4292    0.0000 C   0  0  0  0  0  0  0  0  0  0  0  0
    1.2000   -0.2292    0.0000 C   0  0  0  0  0  0  0  0  0  0  0  0
    3.9000   -1.6667    0.0000 C   0  0  0  0  0  0  0  0  0  0  0  0
    3.8917   -2.4167    0.0000 C   0  0  0  0  0  0  0  0  0  0  0  0
    0.5542    0.9000    0.0000 C   0  0  0  0  0  0  0  0  0  0  0  0
    1.2000    0.5208    0.0000 C   0  0  0  0  0  0  0  0  0  0  0  0
    4.5417   -2.8042    0.0000 C   0  0  0  0  0  0  0  0  0  0  0  0
  2 10  1  0  0  0  0
  3  6  1  0  0  0  0
  4  5  1  0  0  0  0
  5  8  1  0  0  0  0
  6  7  1  0  0  0  0
  7  1  1  0  0  0  0
  8  2  1  0  0  0  0
  9  1  1  0  0  0  0
 10 20  1  0  0  0  0
 11  1  2  0  0  0  0
 12  2  2  0  0  0  0
 13  3  1  0  0  0  0
 14  3  1  0  0  0  0
 15  3  1  0  0  0  0
 16  4  1  0  0  0  0
 17  4  1  0  0  0  0
 18  4  1  0  0  0  0
 19  9  1  0  0  0  0
 20 23  1  0  0  0  0
 20 21  2  0  0  0  0
 21 22  1  0  0  0  0
 22 19  2  0  0  0  0
 23 24  2  0  0  0  0
 24 19  1  0  0  0  0
 25  6  2  0  0  0  0
 26  5  2  0  0  0  0
 27  7  2  0  0  0  0
 28  8  2  0  0  0  0
 29 28  1  0  0  0  0
 30 31  2  0  0  0  0
 30 25  1  0  0  0  0
 31 27  1  0  0  0  0
 32 29  2  0  0  0  0
 32 26  1  0  0  0  0
M  END
>  <ID>
6209379

>  <Supplier>
ChemBridge

>  <clogP>
3.210000000000000e+000

>  <RB>
4

>  <tPSA>
5.820000000000000e+001

>  <Hacc>
2

>  <Hdon>
2

>  <LogSw>
-5.239000000000003e+000

>  <Group>
2

>  <Core>
157

$$$$
7361776
 OpenBabel03312015312D

 29 31  0  0  0  0  0  0  0  0999 V2000
    6.0250   -7.3792    0.0000 C   0  0  0  0  0  0  0  0  0  0  0  0
    7.4417   -8.2000    0.0000 C   0  0  0  0  0  0  0  0  0  0  0  0
    7.4417   -7.3792    0.0000 N   0  0  0  0  0  0  0  0  0  0  0  0
    6.7375   -8.6000    0.0000 N   0  0  0  0  0  0  0  0  0  0  0  0
    6.7375   -6.9542    0.0000 C   0  0  0  0  0  0  0  0  0  0  0  0
    6.0250   -8.2000    0.0000 C   0  0  0  0  0  0  0  0  0  0  0  0
    4.9042   -4.8417    0.0000 C   0  0  0  0  0  0  0  0  0  0  0  0
    4.4292   -4.1667    0.0000 C   0  0  0  0  0  0  0  0  0  0  0  0
    5.3042   -6.9667    0.0000 C   0  0  0  0  0  0  0  0  0  0  0  0
    4.6417   -5.6375    0.0000 O   0  0  0  0  0  0  0  0  0  0  0  0
    5.3125   -6.1292    0.0000 C   0  0  0  0  0  0  0  0  0  0  0  0
    4.7750   -3.4250    0.0000 C   0  0  0  0  0  0  0  0  0  0  0  0
    5.7417   -4.8542    0.0000 C   0  0  0  0  0  0  0  0  0  0  0  0
    4.3000   -2.7542    0.0000 C   0  0  0  0  0  0  0  0  0  0  0  0
    4.6417   -2.0000    0.0000 C   0  0  0  0  0  0  0  0  0  0  0  0
    8.1417   -8.6125    0.0000 S   0  0  0  0  0  0  0  0  0  0  0  0
    6.0042   -5.6375    0.0000 C   0  0  0  0  0  0  0  0  0  0  0  0
    5.3042   -8.6125    0.0000 O   0  0  0  0  0  0  0  0  0  0  0  0
    6.7375   -6.1250    0.0000 O   0  0  0  0  0  0  0  0  0  0  0  0
    3.6167   -4.2542    0.0000 C   0  0  0  0  0  0  0  0  0  0  0  0
    4.1625   -1.3292    0.0000 O   0  0  0  0  0  0  0  0  0  0  0  0
    3.4792   -2.8375    0.0000 C   0  0  0  0  0  0  0  0  0  0  0  0
    6.7375   -9.4042    0.0000 C   0  0  0  0  0  0  0  0  0  0  0  0
    8.1542   -6.9667    0.0000 C   0  0  0  0  0  0  0  0  0  0  0  0
    3.1417   -3.5875    0.0000 C   0  0  0  0  0  0  0  0  0  0  0  0
    5.4625   -1.9167    0.0000 O   0  0  0  0  0  0  0  0  0  0  0  0
    3.2750   -5.0042    0.0000 Cl  0  0  0  0  0  0  0  0  0  0  0  0
    8.1542   -6.1250    0.0000 C   0  0  0  0  0  0  0  0  0  0  0  0
    6.0292   -9.8250    0.0000 C   0  0  0  0  0  0  0  0  0  0  0  0
  2  4  1  0  0  0  0
  3  5  1  0  0  0  0
  3  2  1  0  0  0  0
  4  6  1  0  0  0  0
  5  1  1  0  0  0  0
  6  1  1  0  0  0  0
  7 10  1  0  0  0  0
  7 13  2  0  0  0  0
  8  7  1  0  0  0  0
  9  1  2  0  0  0  0
 10 11  1  0  0  0  0
 11  9  1  0  0  0  0
 12  8  2  0  0  0  0
 13 17  1  0  0  0  0
 14 12  1  0  0  0  0
 15 14  1  0  0  0  0
 16  2  2  0  0  0  0
 17 11  2  0  0  0  0
 18  6  2  0  0  0  0
 19  5  2  0  0  0  0
 20  8  1  0  0  0  0
 21 15  2  0  0  0  0
 22 25  1  0  0  0  0
 22 14  2  0  0  0  0
 23  4  1  0  0  0  0
 24  3  1  0  0  0  0
 25 20  2  0  0  0  0
 26 15  1  0  0  0  0
 27 20  1  0  0  0  0
 28 24  1  0  0  0  0
 29 23  1  0  0  0  0
M  END
>  <ID>
7361776

>  <Supplier>
ChemBridge

>  <clogP>
4.916000000000000e+000

>  <RB>
3

>  <tPSA>
9.106000000000000e+001

>  <Hacc>
5

>  <Hdon>
1

>  <LogSw>
-6.553999999999999e+000

>  <Group>
1

>  <Core>
007

$$$$
6402626
 OpenBabel03312015312D

 32 35  0  0  0  0  0  0  0  0999 V2000
    5.3792   -2.6250    0.0000 N   0  0  0  0  0  0  0  0  0  0  0  0
    4.6542   -3.0375    0.0000 C   0  0  3  0  0  0  0  0  0  0  0  0
    3.9417   -2.6250    0.0000 C   0  0  0  0  0  0  0  0  0  0  0  0
    6.0917   -3.0417    0.0000 C   0  0  0  0  0  0  0  0  0  0  0  0
    3.2250   -5.5042    0.0000 N   0  3  0  0  0  0  0  0  0  0  0  0
    4.6542   -3.8625    0.0000 C   0  0  0  0  0  0  0  0  0  0  0  0
    3.9417   -1.7917    0.0000 C   0  0  0  0  0  0  0  0  0  0  0  0
    3.2292   -3.0292    0.0000 C   0  0  0  0  0  0  0  0  0  0  0  0
    5.3792   -1.7917    0.0000 C   0  0  0  0  0  0  0  0  0  0  0  0
    3.9375   -5.0917    0.0000 C   0  0  0  0  0  0  0  0  0  0  0  0
    3.9417   -4.2667    0.0000 C   0  0  0  0  0  0  0  0  0  0  0  0
    2.5167   -2.6167    0.0000 C   0  0  0  0  0  0  0  0  0  0  0  0
    3.2292   -1.3792    0.0000 C   0  0  0  0  0  0  0  0  0  0  0  0
    2.5167   -1.7917    0.0000 C   0  0  0  0  0  0  0  0  0  0  0  0
    6.8125   -2.6292    0.0000 C   0  0  0  0  0  0  0  0  0  0  0  0
    2.5042   -5.0917    0.0000 O   0  5  0  0  0  0  0  0  0  0  0  0
    3.2167   -6.3292    0.0000 O   0  0  0  0  0  0  0  0  0  0  0  0
    6.0917   -3.8667    0.0000 O   0  0  0  0  0  0  0  0  0  0  0  0
    4.6625   -1.3667    0.0000 C   0  0  0  0  0  0  0  0  0  0  0  0
    6.8042   -1.8042    0.0000 C   0  0  0  0  0  0  0  0  0  0  0  0
    7.5167   -3.0417    0.0000 C   0  0  0  0  0  0  0  0  0  0  0  0
    8.2417   -1.8125    0.0000 C   0  0  0  0  0  0  0  0  0  0  0  0
    1.8000   -3.0292    0.0000 O   0  0  0  0  0  0  0  0  0  0  0  0
    1.8042   -1.3792    0.0000 O   0  0  0  0  0  0  0  0  0  0  0  0
    8.2375   -2.6375    0.0000 C   0  0  0  0  0  0  0  0  0  0  0  0
    7.5167   -1.3917    0.0000 C   0  0  0  0  0  0  0  0  0  0  0  0
    8.9542   -1.4000    0.0000 F   0  0  0  0  0  0  0  0  0  0  0  0
    5.3667   -4.2667    0.0000 C   0  0  0  0  0  0  0  0  0  0  0  0
    4.6542   -5.5042    0.0000 C   0  0  0  0  0  0  0  0  0  0  0  0
    5.3667   -5.0917    0.0000 C   0  0  0  0  0  0  0  0  0  0  0  0
    1.8042   -0.5542    0.0000 C   0  0  0  0  0  0  0  0  0  0  0  0
    1.0875   -2.6167    0.0000 C   0  0  0  0  0  0  0  0  0  0  0  0
  2  1  1  0  0  0  0
  3  2  1  0  0  0  0
  3  7  1  0  0  0  0
  4  1  1  0  0  0  0
  5 10  1  0  0  0  0
  6  2  1  0  0  0  0
  7 19  1  0  0  0  0
  8  3  2  0  0  0  0
  9  1  1  0  0  0  0
 10 11  1  0  0  0  0
 11  6  2  0  0  0  0
 12  8  1  0  0  0  0
 12 14  2  0  0  0  0
 13  7  2  0  0  0  0
 14 13  1  0  0  0  0
 15  4  1  0  0  0  0
 16  5  1  0  0  0  0
 17  5  2  0  0  0  0
 18  4  2  0  0  0  0
 19  9  1  0  0  0  0
 20 15  1  0  0  0  0
 21 15  2  0  0  0  0
 22 25  2  0  0  0  0
 22 26  1  0  0  0  0
 23 12  1  0  0  0  0
 24 14  1  0  0  0  0
 25 21  1  0  0  0  0
 26 20  2  0  0  0  0
 27 22  1  0  0  0  0
 28  6  1  0  0  0  0
 29 30  1  0  0  0  0
 29 10  2  0  0  0  0
 30 28  2  0  0  0  0
 31 24  1  0  0  0  0
 32 23  1  0  0  0  0
M  CHG  2   5   1  16  -1
M  END
>  <ID>
6402626

>  <Supplier>
ChemBridge

>  <clogP>
4.250000000000000e+000

>  <RB>
2

>  <tPSA>
8.191000000000000e+001

>  <Hacc>
5

>  <Hdon>
0

>  <LogSw>
-6.401000000000002e+000

>  <Group>
3

>  <Core>
303

$$$$
6402625
 OpenBabel03312015312D

 23 24  0  0  0  0  0  0  0  0999 V2000
    6.2167   -4.4667    0.0000 S   0  0  0  0  0  0  0  0  0  0  0  0
    6.2167   -3.6417    0.0000 N   0  0  0  0  0  0  0  0  0  0  0  0
    5.5042   -3.2292    0.0000 C   0  0  0  0  0  0  0  0  0  0  0  0
    6.9292   -3.2292    0.0000 C   0  0  0  0  0  0  0  0  0  0  0  0
    5.5042   -2.4000    0.0000 C   0  0  0  0  0  0  0  0  0  0  0  0
    7.6417   -3.6417    0.0000 C   0  0  0  0  0  0  0  0  0  0  0  0
    7.0417   -4.4667    0.0000 O   0  0  0  0  0  0  0  0  0  0  0  0
    6.8042   -5.0500    0.0000 O   0  0  0  0  0  0  0  0  0  0  0  0
    4.7917   -3.6542    0.0000 C   0  0  0  0  0  0  0  0  0  0  0  0
    9.8000   -3.2250    0.0000 C   0  0  0  0  0  0  0  0  0  0  0  0
   10.4792   -3.7125    0.0000 O   0  0  0  0  0  0  0  0  0  0  0  0
    8.3625   -3.2292    0.0000 N   0  0  0  0  0  0  0  0  0  0  0  0
    4.7917   -1.9875    0.0000 C   0  0  0  0  0  0  0  0  0  0  0  0
   10.0625   -2.4292    0.0000 C   0  0  0  0  0  0  0  0  0  0  0  0
   11.1542   -3.2250    0.0000 C   0  0  0  0  0  0  0  0  0  0  0  0
    7.6417   -4.4667    0.0000 O   0  0  0  0  0  0  0  0  0  0  0  0
   10.8917   -2.4292    0.0000 C   0  0  0  0  0  0  0  0  0  0  0  0
    5.5042   -4.8750    0.0000 C   0  0  0  0  0  0  0  0  0  0  0  0
    9.0792   -3.6417    0.0000 C   0  0  0  0  0  0  0  0  0  0  0  0
    4.0667   -2.4000    0.0000 C   0  0  0  0  0  0  0  0  0  0  0  0
    4.0667   -3.2292    0.0000 C   0  0  0  0  0  0  0  0  0  0  0  0
    3.3625   -1.9792    0.0000 Cl  0  0  0  0  0  0  0  0  0  0  0  0
    6.2167   -1.9875    0.0000 C   0  0  0  0  0  0  0  0  0  0  0  0
  2  1  1  0  0  0  0
  3  2  1  0  0  0  0
  4  2  1  0  0  0  0
  5  3  2  0  0  0  0
  6  4  1  0  0  0  0
  7  1  2  0  0  0  0
  8  1  2  0  0  0  0
  9  3  1  0  0  0  0
 10 19  1  0  0  0  0
 11 10  1  0  0  0  0
 12  6  1  0  0  0  0
 13  5  1  0  0  0  0
 13 20  2  0  0  0  0
 14 10  2  0  0  0  0
 15 11  1  0  0  0  0
 15 17  2  0  0  0  0
 16  6  2  0  0  0  0
 17 14  1  0  0  0  0
 18  1  1  0  0  0  0
 19 12  1  0  0  0  0
 20 21  1  0  0  0  0
 21  9  2  0  0  0  0
 22 20  1  0  0  0  0
 23  5  1  0  0  0  0
M  END
>  <ID>
6402625

>  <Supplier>
ChemBridge

>  <clogP>
2.390000000000000e+000

>  <RB>
5

>  <tPSA>
7.962000000000001e+001

>  <Hacc>
4

>  <Hdon>
1

>  <LogSw>
-3.843000000000000e+000

>  <Group>
3

>  <Core>
084

$$$$
6574801
 OpenBabel03312015312D

 21 22  0  0  0  0  0  0  0  0999 V2000
    5.8250    0.3750    0.0000 N   0  3  0  0  0  0  0  0  0  0  0  0
    5.1667    0.0083    0.0000 C   0  0  0  0  0  0  0  0  0  0  0  0
    4.5167    0.3833    0.0000 C   0  0  0  0  0  0  0  0  0  0  0  0
    2.5042   -0.0167    0.0000 C   0  0  0  0  0  0  0  0  0  0  0  0
    6.4667   -0.0042    0.0000 O   0  5  0  0  0  0  0  0  0  0  0  0
    3.2250    0.3875    0.0000 N   0  0  0  0  0  0  0  0  0  0  0  0
    5.8292    1.1333    0.0000 O   0  0  0  0  0  0  0  0  0  0  0  0
    3.8667    0.0125    0.0000 C   0  0  0  0  0  0  0  0  0  0  0  0
    1.2042   -0.0042    0.0000 O   0  0  0  0  0  0  0  0  0  0  0  0
    0.5625    0.3750    0.0000 C   0  0  0  0  0  0  0  0  0  0  0  0
    2.5000   -0.8417    0.0000 O   0  0  0  0  0  0  0  0  0  0  0  0
   -0.0958    0.0083    0.0000 C   0  0  0  0  0  0  0  0  0  0  0  0
    1.8542    0.3625    0.0000 C   0  0  0  0  0  0  0  0  0  0  0  0
   -0.1000   -0.7417    0.0000 Cl  0  0  0  0  0  0  0  0  0  0  0  0
    5.1667   -0.7417    0.0000 C   0  0  0  0  0  0  0  0  0  0  0  0
    4.5125   -1.1167    0.0000 C   0  0  0  0  0  0  0  0  0  0  0  0
    3.8667   -0.7375    0.0000 C   0  0  0  0  0  0  0  0  0  0  0  0
    0.5667    1.1250    0.0000 C   0  0  0  0  0  0  0  0  0  0  0  0
   -0.7375    0.3958    0.0000 C   0  0  0  0  0  0  0  0  0  0  0  0
   -0.7333    1.1458    0.0000 C   0  0  0  0  0  0  0  0  0  0  0  0
   -0.0750    1.5083    0.0000 C   0  0  0  0  0  0  0  0  0  0  0  0
  2  1  1  0  0  0  0
  3  2  2  0  0  0  0
  4  6  1  0  0  0  0
  5  1  1  0  0  0  0
  6  8  1  0  0  0  0
  7  1  2  0  0  0  0
  8  3  1  0  0  0  0
  8 17  2  0  0  0  0
  9 13  1  0  0  0  0
 10  9  1  0  0  0  0
 11  4  2  0  0  0  0
 12 10  2  0  0  0  0
 13  4  1  0  0  0  0
 14 12  1  0  0  0  0
 15  2  1  0  0  0  0
 16 15  2  0  0  0  0
 17 16  1  0  0  0  0
 18 10  1  0  0  0  0
 19 12  1  0  0  0  0
 19 20  2  0  0  0  0
 20 21  1  0  0  0  0
 21 18  2  0  0  0  0
M  CHG  2   1   1   5  -1
M  END
>  <ID>
6574801

>  <Supplier>
ChemBridge

>  <clogP>
3.590000000000000e+000

>  <RB>
4

>  <tPSA>
8.147000000000000e+001

>  <Hacc>
4

>  <Hdon>
1

>  <LogSw>
-4.893000000000000e+000

>  <Group>
1

>  <Core>
315

$$$$
6402628
 OpenBabel03312015312D

 22 23  0  0  0  0  0  0  0  0999 V2000
    5.7417   -4.4542    0.0000 S   0  0  0  0  0  0  0  0  0  0  0  0
    5.7417   -3.6292    0.0000 N   0  0  0  0  0  0  0  0  0  0  0  0
    6.4542   -3.2167    0.0000 C   0  0  0  0  0  0  0  0  0  0  0  0
    7.1667   -3.6292    0.0000 C   0  0  0  0  0  0  0  0  0  0  0  0
    7.8792   -3.2167    0.0000 N   0  0  0  0  0  0  0  0  0  0  0  0
    5.0250   -3.2125    0.0000 C   0  0  0  0  0  0  0  0  0  0  0  0
    6.3250   -5.0375    0.0000 O   0  0  0  0  0  0  0  0  0  0  0  0
    6.5667   -4.4417    0.0000 O   0  0  0  0  0  0  0  0  0  0  0  0
    7.1667   -4.4542    0.0000 O   0  0  0  0  0  0  0  0  0  0  0  0
    8.5917   -3.6167    0.0000 C   0  0  0  0  0  0  0  0  0  0  0  0
    7.8667   -2.3917    0.0000 C   0  0  0  0  0  0  0  0  0  0  0  0
    5.0292   -2.3875    0.0000 C   0  0  0  0  0  0  0  0  0  0  0  0
    5.0250   -4.8625    0.0000 C   0  0  0  0  0  0  0  0  0  0  0  0
    8.5792   -1.9667    0.0000 C   0  0  0  0  0  0  0  0  0  0  0  0
    9.3042   -3.2042    0.0000 C   0  0  0  0  0  0  0  0  0  0  0  0
    9.3000   -2.3792    0.0000 C   0  0  0  0  0  0  0  0  0  0  0  0
    4.3125   -3.6375    0.0000 C   0  0  0  0  0  0  0  0  0  0  0  0
    5.7417   -1.9750    0.0000 C   0  0  0  0  0  0  0  0  0  0  0  0
    4.3167   -1.9750    0.0000 C   0  0  0  0  0  0  0  0  0  0  0  0
   10.0125   -1.9667    0.0000 C   0  0  0  0  0  0  0  0  0  0  0  0
    3.5917   -3.2125    0.0000 C   0  0  0  0  0  0  0  0  0  0  0  0
    3.5917   -2.3875    0.0000 C   0  0  0  0  0  0  0  0  0  0  0  0
  2  1  1  0  0  0  0
  3  2  1  0  0  0  0
  4  3  1  0  0  0  0
  5  4  1  0  0  0  0
  6  2  1  0  0  0  0
  7  1  2  0  0  0  0
  8  1  2  0  0  0  0
  9  4  2  0  0  0  0
 10  5  1  0  0  0  0
 11  5  1  0  0  0  0
 12  6  2  0  0  0  0
 13  1  1  0  0  0  0
 14 11  1  0  0  0  0
 15 10  1  0  0  0  0
 15 16  1  0  0  0  0
 16 14  1  0  0  0  0
 17  6  1  0  0  0  0
 18 12  1  0  0  0  0
 19 12  1  0  0  0  0
 20 16  1  0  0  0  0
 21 17  2  0  0  0  0
 22 21  1  0  0  0  0
 22 19  2  0  0  0  0
M  END
>  <ID>
6402628

>  <Supplier>
ChemBridge

>  <clogP>
2.310000000000000e+000

>  <RB>
3

>  <tPSA>
5.769000000000000e+001

>  <Hacc>
3

>  <Hdon>
0

>  <LogSw>
-3.539000000000000e+000

>  <Group>
3

>  <Core>
084

$$$$
5396751
 OpenBabel03312015312D

 26 28  0  0  0  0  0  0  0  0999 V2000
    9.1000   -2.4042    0.0000 N   0  0  0  0  0  0  0  0  0  0  0  0
    9.5042   -3.1167    0.0000 C   0  0  0  0  0  0  0  0  0  0  0  0
    8.2750   -2.4000    0.0000 C   0  0  0  0  0  0  0  0  0  0  0  0
    7.8625   -3.1167    0.0000 C   0  0  0  0  0  0  0  0  0  0  0  0
    9.0917   -3.8292    0.0000 N   0  0  0  0  0  0  0  0  0  0  0  0
    8.2667   -3.8292    0.0000 C   0  0  0  0  0  0  0  0  0  0  0  0
    9.5667   -1.5917    0.0000 C   0  0  0  0  0  0  0  0  0  0  0  0
    7.0375   -3.1125    0.0000 C   0  0  0  0  0  0  0  0  0  0  0  0
    9.0917   -0.7792    0.0000 C   0  0  0  0  0  0  0  0  0  0  0  0
   10.3292   -3.1167    0.0000 O   0  0  0  0  0  0  0  0  0  0  0  0
    7.8667   -1.6875    0.0000 O   0  0  0  0  0  0  0  0  0  0  0  0
    6.6292   -2.3917    0.0000 N   0  0  0  0  0  0  0  0  0  0  0  0
    7.8542   -4.5500    0.0000 O   0  0  0  0  0  0  0  0  0  0  0  0
    5.5042   -3.0292    0.0000 C   0  0  0  0  0  0  0  0  0  0  0  0
    5.8792   -2.3917    0.0000 C   0  0  0  0  0  0  0  0  0  0  0  0
    9.5750    0.0250    0.0000 C   0  0  0  0  0  0  0  0  0  0  0  0
    4.7625   -3.0042    0.0000 C   0  0  0  0  0  0  0  0  0  0  0  0
   10.5042   -1.5917    0.0000 C   0  0  0  0  0  0  0  0  0  0  0  0
    4.3667   -3.6167    0.0000 Cl  0  0  0  0  0  0  0  0  0  0  0  0
    9.1042    0.8375    0.0000 O   0  0  0  0  0  0  0  0  0  0  0  0
   10.9792   -0.7875    0.0000 C   0  0  0  0  0  0  0  0  0  0  0  0
    4.7792   -1.7375    0.0000 C   0  0  0  0  0  0  0  0  0  0  0  0
    5.5292   -1.7625    0.0000 C   0  0  0  0  0  0  0  0  0  0  0  0
   10.5042    0.0208    0.0000 C   0  0  0  0  0  0  0  0  0  0  0  0
    4.4125   -2.3792    0.0000 C   0  0  0  0  0  0  0  0  0  0  0  0
    9.5667    1.6375    0.0000 C   0  0  0  0  0  0  0  0  0  0  0  0
  2  1  1  0  0  0  0
  3  1  1  0  0  0  0
  4  3  1  0  0  0  0
  5  2  1  0  0  0  0
  5  6  1  0  0  0  0
  6  4  1  0  0  0  0
  7  1  1  0  0  0  0
  8  4  2  0  0  0  0
  9  7  1  0  0  0  0
 10  2  2  0  0  0  0
 11  3  2  0  0  0  0
 12  8  1  0  0  0  0
 13  6  2  0  0  0  0
 14 15  1  0  0  0  0
 15 12  1  0  0  0  0
 16  9  2  0  0  0  0
 17 14  2  0  0  0  0
 17 25  1  0  0  0  0
 18  7  2  0  0  0  0
 19 17  1  0  0  0  0
 20 16  1  0  0  0  0
 21 18  1  0  0  0  0
 22 23  1  0  0  0  0
 23 15  2  0  0  0  0
 24 21  2  0  0  0  0
 24 16  1  0  0  0  0
 25 22  2  0  0  0  0
 26 20  1  0  0  0  0
M  END
>  <ID>
5396751

>  <Supplier>
ChemBridge

>  <clogP>
4.240000000000000e+000

>  <RB>
3

>  <tPSA>
8.774000000000000e+001

>  <Hacc>
4

>  <Hdon>
2

>  <LogSw>
-5.532000000000000e+000

>  <Group>
3

>  <Core>
192

$$$$
5396753
 OpenBabel03312015312D

 28 31  0  0  0  0  0  0  0  0999 V2000
    9.6542   -2.2875    0.0000 N   0  0  0  0  0  0  0  0  0  0  0  0
   10.0417   -3.0167    0.0000 C   0  0  0  0  0  0  0  0  0  0  0  0
    8.8292   -2.2625    0.0000 C   0  0  0  0  0  0  0  0  0  0  0  0
    8.3917   -2.9667    0.0000 C   0  0  0  0  0  0  0  0  0  0  0  0
    9.6042   -3.7167    0.0000 N   0  0  0  0  0  0  0  0  0  0  0  0
    8.7875   -3.6917    0.0000 C   0  0  0  0  0  0  0  0  0  0  0  0
    7.5542   -2.9417    0.0000 C   0  0  0  0  0  0  0  0  0  0  0  0
   10.1417   -1.4917    0.0000 C   0  0  0  0  0  0  0  0  0  0  0  0
   10.8792   -3.0292    0.0000 S   0  0  0  0  0  0  0  0  0  0  0  0
    8.4375   -1.5250    0.0000 O   0  0  0  0  0  0  0  0  0  0  0  0
    4.8667   -3.0375    0.0000 C   0  0  0  0  0  0  0  0  0  0  0  0
    7.1625   -2.2167    0.0000 N   0  0  0  0  0  0  0  0  0  0  0  0
    8.3500   -4.3917    0.0000 O   0  0  0  0  0  0  0  0  0  0  0  0
    9.7125   -0.6750    0.0000 C   0  0  0  0  0  0  0  0  0  0  0  0
    4.3917   -2.2417    0.0000 C   0  0  0  0  0  0  0  0  0  0  0  0
    5.7917   -3.0292    0.0000 C   0  0  0  0  0  0  0  0  0  0  0  0
    6.2417   -2.2167    0.0000 C   0  0  0  0  0  0  0  0  0  0  0  0
    4.8500   -1.4417    0.0000 C   0  0  0  0  0  0  0  0  0  0  0  0
    5.7667   -1.4292    0.0000 C   0  0  0  0  0  0  0  0  0  0  0  0
    8.7875   -0.6292    0.0000 O   0  0  0  0  0  0  0  0  0  0  0  0
   11.0917   -1.5375    0.0000 C   0  0  0  0  0  0  0  0  0  0  0  0
    4.2667   -3.7167    0.0000 C   0  0  0  0  0  0  0  0  0  0  0  0
    3.4250   -3.3917    0.0000 C   0  0  0  0  0  0  0  0  0  0  0  0
    3.4917   -2.4542    0.0000 C   0  0  0  0  0  0  0  0  0  0  0  0
   10.2167    0.1208    0.0000 C   0  0  0  0  0  0  0  0  0  0  0  0
    8.3542    0.1750    0.0000 C   0  0  0  0  0  0  0  0  0  0  0  0
   11.5917   -0.7500    0.0000 C   0  0  0  0  0  0  0  0  0  0  0  0
   11.1542    0.0750    0.0000 C   0  0  0  0  0  0  0  0  0  0  0  0
  2  1  1  0  0  0  0
  3  1  1  0  0  0  0
  4  3  1  0  0  0  0
  5  2  1  0  0  0  0
  5  6  1  0  0  0  0
  6  4  1  0  0  0  0
  7  4  2  0  0  0  0
  8  1  1  0  0  0  0
  9  2  2  0  0  0  0
 10  3  2  0  0  0  0
 11 16  2  0  0  0  0
 11 15  1  0  0  0  0
 12  7  1  0  0  0  0
 13  6  2  0  0  0  0
 14  8  1  0  0  0  0
 15 18  2  0  0  0  0
 16 17  1  0  0  0  0
 17 12  1  0  0  0  0
 18 19  1  0  0  0  0
 19 17  2  0  0  0  0
 20 14  1  0  0  0  0
 21  8  2  0  0  0  0
 22 11  1  0  0  0  0
 23 22  1  0  0  0  0
 24 15  1  0  0  0  0
 24 23  1  0  0  0  0
 25 14  2  0  0  0  0
 26 20  1  0  0  0  0
 27 21  1  0  0  0  0
 28 27  2  0  0  0  0
 28 25  1  0  0  0  0
M  END
>  <ID>
5396753

>  <Supplier>
ChemBridge

>  <clogP>
4.230000000000000e+000

>  <RB>
3

>  <tPSA>
7.066999999999999e+001

>  <Hacc>
3

>  <Hdon>
2

>  <LogSw>
-5.681000000000000e+000

>  <Group>
3

>  <Core>
191

$$$$
6375325
 OpenBabel03312015312D

 21 23  0  0  0  0  0  0  0  0999 V2000
    5.3125   -3.6542    0.0000 C   0  0  0  0  0  0  0  0  0  0  0  0
    5.9875   -3.9667    0.0000 C   0  0  0  0  0  0  0  0  0  0  0  0
    7.1917   -4.1042    0.0000 N   0  0  0  0  0  0  0  0  0  0  0  0
    4.6542   -4.0167    0.0000 C   0  0  0  0  0  0  0  0  0  0  0  0
    6.6417   -3.6000    0.0000 C   0  0  0  0  0  0  0  0  0  0  0  0
    6.8792   -4.7917    0.0000 C   0  0  0  0  0  0  0  0  0  0  0  0
    4.1042   -3.5125    0.0000 N   0  0  0  0  0  0  0  0  0  0  0  0
    6.1375   -4.7000    0.0000 S   0  0  0  0  0  0  0  0  0  0  0  0
    5.1542   -2.9167    0.0000 C   0  0  0  0  0  0  0  0  0  0  0  0
    4.4167   -2.8292    0.0000 C   0  0  0  0  0  0  0  0  0  0  0  0
    7.2417   -5.4417    0.0000 S   0  0  0  0  0  0  0  0  0  0  0  0
    4.1292   -2.1542    0.0000 C   0  0  0  0  0  0  0  0  0  0  0  0
    4.5667   -4.7625    0.0000 O   0  0  0  0  0  0  0  0  0  0  0  0
    6.7292   -2.8542    0.0000 O   0  0  0  0  0  0  0  0  0  0  0  0
    5.6042   -2.3292    0.0000 C   0  0  0  0  0  0  0  0  0  0  0  0
    7.9375   -3.9667    0.0000 N   0  0  0  0  0  0  0  0  0  0  0  0
    5.3125   -1.6417    0.0000 C   0  0  0  0  0  0  0  0  0  0  0  0
    3.3750   -3.6542    0.0000 C   0  0  0  0  0  0  0  0  0  0  0  0
    4.5667   -1.5542    0.0000 C   0  0  0  0  0  0  0  0  0  0  0  0
    5.7625   -1.0417    0.0000 Br  0  0  0  0  0  0  0  0  0  0  0  0
    2.8792   -3.0917    0.0000 C   0  0  0  0  0  0  0  0  0  0  0  0
  2  1  2  0  0  0  0
  3  5  1  0  0  0  0
  3  6  1  0  0  0  0
  4  1  1  0  0  0  0
  5  2  1  0  0  0  0
  6  8  1  0  0  0  0
  7  4  1  0  0  0  0
  8  2  1  0  0  0  0
  9  1  1  0  0  0  0
 10  9  2  0  0  0  0
 10  7  1  0  0  0  0
 11  6  2  0  0  0  0
 12 10  1  0  0  0  0
 13  4  2  0  0  0  0
 14  5  2  0  0  0  0
 15  9  1  0  0  0  0
 16  3  1  0  0  0  0
 17 15  2  0  0  0  0
 18  7  1  0  0  0  0
 19 17  1  0  0  0  0
 19 12  2  0  0  0  0
 20 17  1  0  0  0  0
 21 18  1  0  0  0  0
M  END
>  <ID>
6375325

>  <Supplier>
ChemBridge

>  <clogP>
3.860000000000000e+000

>  <RB>
0

>  <tPSA>
6.663999999999999e+001

>  <Hacc>
2

>  <Hdon>
1

>  <LogSw>
-5.298000000000000e+000

>  <Group>
1

>  <Core>
546

$$$$
9093853
 OpenBabel03312015312D

 18 19  0  0  0  0  0  0  0  0999 V2000
    0.9167   -1.3625    0.0000 C   0  0  0  0  0  0  0  0  0  0  0  0
    0.4000   -0.5250    0.0000 C   0  0  0  0  0  0  0  0  0  0  0  0
    2.1292   -2.4375    0.0000 N   0  0  0  0  0  0  0  0  0  0  0  0
   -0.6000   -0.5250    0.0000 N   0  0  0  0  0  0  0  0  0  0  0  0
    1.3042   -2.9375    0.0000 O   0  0  0  0  0  0  0  0  0  0  0  0
    0.5542   -2.2917    0.0000 C   0  0  0  0  0  0  0  0  0  0  0  0
    1.9042   -1.4292    0.0000 C   0  0  0  0  0  0  0  0  0  0  0  0
   -1.1000    0.3583    0.0000 C   0  0  0  0  0  0  0  0  0  0  0  0
   -2.0958    0.3583    0.0000 C   0  0  0  0  0  0  0  0  0  0  0  0
   -2.5958    1.2333    0.0000 C   0  0  0  0  0  0  0  0  0  0  0  0
    0.9042    0.3708    0.0000 O   0  0  0  0  0  0  0  0  0  0  0  0
   -0.6000    1.2083    0.0000 C   0  0  0  0  0  0  0  0  0  0  0  0
   -2.0833    2.0833    0.0000 C   0  0  0  0  0  0  0  0  0  0  0  0
   -2.5958   -0.5125    0.0000 F   0  0  0  0  0  0  0  0  0  0  0  0
   -1.0750    2.0833    0.0000 C   0  0  0  0  0  0  0  0  0  0  0  0
   -2.5833    2.9458    0.0000 Br  0  0  0  0  0  0  0  0  0  0  0  0
   -0.2583   -2.9125    0.0000 C   0  0  0  0  0  0  0  0  0  0  0  0
    2.5917   -0.6917    0.0000 C   0  0  0  0  0  0  0  0  0  0  0  0
  2  1  1  0  0  0  0
  3  7  2  0  0  0  0
  4  2  1  0  0  0  0
  5  6  1  0  0  0  0
  5  3  1  0  0  0  0
  6  1  2  0  0  0  0
  7  1  1  0  0  0  0
  8  4  1  0  0  0  0
  9  8  1  0  0  0  0
 10  9  2  0  0  0  0
 10 13  1  0  0  0  0
 11  2  2  0  0  0  0
 12  8  2  0  0  0  0
 13 15  2  0  0  0  0
 14  9  1  0  0  0  0
 15 12  1  0  0  0  0
 16 13  1  0  0  0  0
 17  6  1  0  0  0  0
 18  7  1  0  0  0  0
M  END
>  <ID>
9093853

>  <Supplier>
ChemBridge

>  <clogP>
1.742000000000000e+000

>  <RB>
2

>  <tPSA>
5.513000000000000e+001

>  <Hacc>
3

>  <Hdon>
1

>  <LogSw>
-2.971000000000000e+000

>  <Group>
2

$$$$
5116097
 OpenBabel03312015312D

 23 25  0  0  0  0  0  0  0  0999 V2000
   -0.2458   -0.0292    0.0000 P   0  0  0  0  0  0  0  0  0  0  0  0
   -0.2458    1.1708    0.0000 C   0  0  0  0  0  0  0  0  0  0  0  0
   -1.4208   -0.0292    0.0000 O   0  0  0  0  0  0  0  0  0  0  0  0
    0.9542   -0.0292    0.0000 C   0  0  0  0  0  0  0  0  0  0  0  0
   -0.2458   -1.2042    0.0000 C   0  0  0  0  0  0  0  0  0  0  0  0
   -1.2625    1.7500    0.0000 C   0  0  0  0  0  0  0  0  0  0  0  0
   -3.3000    2.9583    0.0000 C   0  0  0  0  0  0  0  0  0  0  0  0
   -1.2625    2.9583    0.0000 C   0  0  0  0  0  0  0  0  0  0  0  0
   -2.2833    1.1708    0.0000 C   0  0  0  0  0  0  0  0  0  0  0  0
   -2.2833    3.5333    0.0000 C   0  0  0  0  0  0  0  0  0  0  0  0
   -3.3000    1.7500    0.0000 C   0  0  0  0  0  0  0  0  0  0  0  0
   -4.3208    3.5500    0.0000 O   0  0  0  0  0  0  0  0  0  0  0  0
    0.8000   -1.7875    0.0000 C   0  0  0  0  0  0  0  0  0  0  0  0
    1.5375   -1.0500    0.0000 C   0  0  0  0  0  0  0  0  0  0  0  0
   -1.2625   -1.7875    0.0000 C   0  0  0  0  0  0  0  0  0  0  0  0
    1.5375    1.0125    0.0000 C   0  0  0  0  0  0  0  0  0  0  0  0
   -5.3458    2.9708    0.0000 C   0  0  0  0  0  0  0  0  0  0  0  0
   -1.2625   -2.9875    0.0000 C   0  0  0  0  0  0  0  0  0  0  0  0
    2.7375   -1.0500    0.0000 C   0  0  0  0  0  0  0  0  0  0  0  0
    0.8000   -2.9875    0.0000 C   0  0  0  0  0  0  0  0  0  0  0  0
    2.7375    1.0125    0.0000 C   0  0  0  0  0  0  0  0  0  0  0  0
    3.3167   -0.0292    0.0000 C   0  0  0  0  0  0  0  0  0  0  0  0
   -0.2458   -3.5667    0.0000 C   0  0  0  0  0  0  0  0  0  0  0  0
  2  1  1  0  0  0  0
  3  1  2  0  0  0  0
  4  1  1  0  0  0  0
  5  1  1  0  0  0  0
  6  2  1  0  0  0  0
  7 11  2  0  0  0  0
  8  6  1  0  0  0  0
  9  6  2  0  0  0  0
 10  8  2  0  0  0  0
 10  7  1  0  0  0  0
 11  9  1  0  0  0  0
 12  7  1  0  0  0  0
 13  5  1  0  0  0  0
 14  4  2  0  0  0  0
 15  5  2  0  0  0  0
 16  4  1  0  0  0  0
 17 12  1  0  0  0  0
 18 15  1  0  0  0  0
 19 14  1  0  0  0  0
 19 22  2  0  0  0  0
 20 13  2  0  0  0  0
 21 16  2  0  0  0  0
 22 21  1  0  0  0  0
 23 18  2  0  0  0  0
 23 20  1  0  0  0  0
M  END
>  <ID>
5116097

>  <Supplier>
ChemBridge

>  <clogP>
5.710000000000000e+000

>  <RB>
4

>  <tPSA>
2.630000000000000e+001

>  <Hacc>
2

>  <Hdon>
0

>  <LogSw>
-6.427000000000000e+000

>  <Group>
2

$$$$
5879263
 OpenBabel03312015312D

 30 34  0  0  0  0  0  0  0  0999 V2000
   -1.0625    0.7458    0.0000 C   0  0  0  0  0  0  0  0  0  0  0  0
   -0.3708    0.4208    0.0000 N   0  0  0  0  0  0  0  0  0  0  0  0
   -3.8833    0.9125    0.0000 C   0  0  0  0  0  0  0  0  0  0  0  0
   -3.3958    1.4708    0.0000 N   0  0  0  0  0  0  0  0  0  0  0  0
   -0.9958    1.4833    0.0000 S   0  0  0  0  0  0  0  0  0  0  0  0
   -4.5958    1.2000    0.0000 S   0  0  0  0  0  0  0  0  0  0  0  0
   -0.2208    1.6500    0.0000 C   0  0  0  0  0  0  0  0  0  0  0  0
    0.1167    0.9958    0.0000 C   0  0  0  0  0  0  0  0  0  0  0  0
   -3.7625    2.1333    0.0000 C   0  0  0  0  0  0  0  0  0  0  0  0
   -4.5333    1.9583    0.0000 C   0  0  0  0  0  0  0  0  0  0  0  0
   -1.6958    0.2833    0.0000 C   0  0  0  0  0  0  0  0  0  0  0  0
   -4.0833   -1.1042    0.0000 C   0  0  0  0  0  0  0  0  0  0  0  0
   -3.7000    0.1708    0.0000 S   0  0  0  0  0  0  0  0  0  0  0  0
   -3.3500   -1.3292    0.0000 N   0  0  0  0  0  0  0  0  0  0  0  0
    0.1792    2.3000    0.0000 C   0  0  0  0  0  0  0  0  0  0  0  0
   -4.6333   -1.6542    0.0000 O   0  0  0  0  0  0  0  0  0  0  0  0
    0.8792    0.9625    0.0000 C   0  0  0  0  0  0  0  0  0  0  0  0
   -2.4125    0.4833    0.0000 C   0  0  0  0  0  0  0  0  0  0  0  0
   -1.5125   -0.4875    0.0000 C   0  0  0  0  0  0  0  0  0  0  0  0
   -4.2708   -0.3500    0.0000 C   0  0  0  0  0  0  0  0  0  0  0  0
   -2.7958   -0.7875    0.0000 C   0  0  0  0  0  0  0  0  0  0  0  0
    0.9500    2.2708    0.0000 C   0  0  0  0  0  0  0  0  0  0  0  0
   -2.0458   -1.0167    0.0000 C   0  0  0  0  0  0  0  0  0  0  0  0
   -2.9708   -0.0500    0.0000 C   0  0  0  0  0  0  0  0  0  0  0  0
    1.3042    1.5833    0.0000 C   0  0  0  0  0  0  0  0  0  0  0  0
   -3.5625    2.8625    0.0000 C   0  0  0  0  0  0  0  0  0  0  0  0
   -5.0625    2.5000    0.0000 C   0  0  0  0  0  0  0  0  0  0  0  0
    1.2542    2.7458    0.0000 C   0  0  0  0  0  0  0  0  0  0  0  0
   -4.8333    3.2458    0.0000 C   0  0  0  0  0  0  0  0  0  0  0  0
   -4.1000    3.4208    0.0000 C   0  0  0  0  0  0  0  0  0  0  0  0
  2  1  2  0  0  0  0
  3 13  1  0  0  0  0
  4  3  2  0  0  0  0
  5  1  1  0  0  0  0
  6  3  1  0  0  0  0
  7  5  1  0  0  0  0
  8  2  1  0  0  0  0
  8  7  2  0  0  0  0
  9  4  1  0  0  0  0
  9 10  2  0  0  0  0
 10  6  1  0  0  0  0
 11  1  1  0  0  0  0
 12 14  1  0  0  0  0
 13 20  1  0  0  0  0
 14 21  1  0  0  0  0
 15  7  1  0  0  0  0
 16 12  2  0  0  0  0
 17  8  1  0  0  0  0
 18 11  2  0  0  0  0
 19 11  1  0  0  0  0
 20 12  1  0  0  0  0
 21 23  1  0  0  0  0
 22 15  2  0  0  0  0
 23 19  2  0  0  0  0
 24 18  1  0  0  0  0
 24 21  2  0  0  0  0
 25 17  2  0  0  0  0
 25 22  1  0  0  0  0
 26  9  1  0  0  0  0
 27 10  1  0  0  0  0
 28 22  1  0  0  0  0
 29 27  2  0  0  0  0
 30 26  2  0  0  0  0
 30 29  1  0  0  0  0
M  END
>  <ID>
5879263

>  <Supplier>
ChemBridge

>  <clogP>
6.280000000000000e+000

>  <RB>
5

>  <tPSA>
5.488000000000000e+001

>  <Hacc>
3

>  <Hdon>
1

>  <LogSw>
-8.936000000000000e+000

>  <Group>
1

>  <Core>
012

$$$$
5341519
 OpenBabel03312015312D

 31 34  0  0  0  0  0  0  0  0999 V2000
    3.7500   -1.4000    0.0000 N   0  3  0  0  0  0  0  0  0  0  0  0
   -1.8958    0.0000    0.0000 C   0  0  0  0  0  0  0  0  0  0  0  0
   -1.0708    0.0000    0.0000 N   0  0  0  0  0  0  0  0  0  0  0  0
   -0.6708    0.7000    0.0000 C   0  0  0  0  0  0  0  0  0  0  0  0
   -1.0708    1.4000    0.0000 N   0  0  0  0  0  0  0  0  0  0  0  0
   -1.8708    1.4000    0.0000 C   0  0  0  0  0  0  0  0  0  0  0  0
   -2.2958    0.7000    0.0000 C   0  0  0  0  0  0  0  0  0  0  0  0
   -2.2958   -0.7000    0.0000 C   0  0  0  0  0  0  0  0  0  0  0  0
    2.9500   -1.4000    0.0000 C   0  0  0  0  0  0  0  0  0  0  0  0
    0.5500    0.0000    0.0000 N   0  0  0  0  0  0  0  0  0  0  0  0
    4.1292   -2.0875    0.0000 O   0  5  0  0  0  0  0  0  0  0  0  0
    4.1167   -0.7042    0.0000 O   0  0  0  0  0  0  0  0  0  0  0  0
    0.1500    0.7000    0.0000 N   0  0  0  0  0  0  0  0  0  0  0  0
   -3.0958   -0.7000    0.0000 C   0  0  0  0  0  0  0  0  0  0  0  0
    2.5500   -0.7000    0.0000 C   0  0  0  0  0  0  0  0  0  0  0  0
   -2.2708    2.1000    0.0000 C   0  0  0  0  0  0  0  0  0  0  0  0
    1.3500    0.0000    0.0000 C   0  0  0  0  0  0  0  0  0  0  0  0
    1.7500   -0.7000    0.0000 C   0  0  0  0  0  0  0  0  0  0  0  0
   -3.5125    0.0208    0.0000 O   0  0  0  0  0  0  0  0  0  0  0  0
   -1.8958   -1.4000    0.0000 C   0  0  0  0  0  0  0  0  0  0  0  0
    2.5500   -2.1000    0.0000 C   0  0  0  0  0  0  0  0  0  0  0  0
    1.7500   -2.1000    0.0000 C   0  0  0  0  0  0  0  0  0  0  0  0
   -3.4958   -1.4000    0.0000 C   0  0  0  0  0  0  0  0  0  0  0  0
   -3.0708    2.1000    0.0000 C   0  0  0  0  0  0  0  0  0  0  0  0
   -1.8708    2.8000    0.0000 C   0  0  0  0  0  0  0  0  0  0  0  0
    1.3500   -1.4000    0.0000 C   0  0  0  0  0  0  0  0  0  0  0  0
   -2.3125   -2.1000    0.0000 C   0  0  0  0  0  0  0  0  0  0  0  0
   -3.4708    2.8000    0.0000 C   0  0  0  0  0  0  0  0  0  0  0  0
   -3.0958   -2.1000    0.0000 C   0  0  0  0  0  0  0  0  0  0  0  0
   -2.2708    3.5000    0.0000 C   0  0  0  0  0  0  0  0  0  0  0  0
   -3.0708    3.5000    0.0000 C   0  0  0  0  0  0  0  0  0  0  0  0
  2  3  1  0  0  0  0
  3  4  2  0  0  0  0
  4 13  1  0  0  0  0
  5  4  1  0  0  0  0
  6  5  2  0  0  0  0
  7  6  1  0  0  0  0
  7  2  2  0  0  0  0
  8  2  1  0  0  0  0
  9  1  1  0  0  0  0
 10 17  2  0  0  0  0
 11  1  1  0  0  0  0
 12  1  2  0  0  0  0
 13 10  1  0  0  0  0
 14  8  2  0  0  0  0
 15  9  2  0  0  0  0
 16  6  1  0  0  0  0
 17 18  1  0  0  0  0
 18 15  1  0  0  0  0
 19 14  1  0  0  0  0
 20  8  1  0  0  0  0
 21  9  1  0  0  0  0
 22 21  2  0  0  0  0
 23 14  1  0  0  0  0
 23 29  2  0  0  0  0
 24 16  2  0  0  0  0
 25 16  1  0  0  0  0
 26 22  1  0  0  0  0
 26 18  2  0  0  0  0
 27 20  2  0  0  0  0
 28 24  1  0  0  0  0
 29 27  1  0  0  0  0
 30 25  2  0  0  0  0
 31 30  1  0  0  0  0
 31 28  2  0  0  0  0
M  CHG  2   1   1  11  -1
M  END
>  <ID>
5341519

>  <Supplier>
ChemBridge

>  <clogP>
5.370000000000000e+000

>  <RB>
5

>  <tPSA>
1.135400000000000e+002

>  <Hacc>
6

>  <Hdon>
2

>  <LogSw>
-6.595000000000000e+000

>  <Group>
1

>  <Core>
181

$$$$
5341514
 OpenBabel03312015312D

 29 32  0  0  0  0  0  0  0  0999 V2000
   -1.8958    0.0000    0.0000 C   0  0  0  0  0  0  0  0  0  0  0  0
   -1.0708    0.0000    0.0000 N   0  0  0  0  0  0  0  0  0  0  0  0
   -0.6708    0.7000    0.0000 C   0  0  0  0  0  0  0  0  0  0  0  0
   -1.0708    1.4000    0.0000 N   0  0  0  0  0  0  0  0  0  0  0  0
   -1.8708    1.4000    0.0000 C   0  0  0  0  0  0  0  0  0  0  0  0
   -2.2958    0.7000    0.0000 C   0  0  0  0  0  0  0  0  0  0  0  0
   -2.2958   -0.7000    0.0000 C   0  0  0  0  0  0  0  0  0  0  0  0
    0.5500    0.0000    0.0000 N   0  0  0  0  0  0  0  0  0  0  0  0
    0.1500    0.7000    0.0000 N   0  0  0  0  0  0  0  0  0  0  0  0
   -3.0958   -0.7000    0.0000 C   0  0  0  0  0  0  0  0  0  0  0  0
   -2.2708    2.1000    0.0000 C   0  0  0  0  0  0  0  0  0  0  0  0
    1.3500    0.0000    0.0000 C   0  0  0  0  0  0  0  0  0  0  0  0
    1.7500   -0.7000    0.0000 C   0  0  0  0  0  0  0  0  0  0  0  0
    2.5500   -2.1000    0.0000 C   0  0  0  0  0  0  0  0  0  0  0  0
    2.9500   -2.8000    0.0000 Br  0  0  0  0  0  0  0  0  0  0  0  0
   -3.5125    0.0208    0.0000 O   0  0  0  0  0  0  0  0  0  0  0  0
    2.9500   -1.4000    0.0000 C   0  0  0  0  0  0  0  0  0  0  0  0
    1.7500   -2.1000    0.0000 C   0  0  0  0  0  0  0  0  0  0  0  0
    1.3500   -1.4000    0.0000 C   0  0  0  0  0  0  0  0  0  0  0  0
    2.5500   -0.7000    0.0000 C   0  0  0  0  0  0  0  0  0  0  0  0
   -1.8958   -1.4000    0.0000 C   0  0  0  0  0  0  0  0  0  0  0  0
   -3.4958   -1.4000    0.0000 C   0  0  0  0  0  0  0  0  0  0  0  0
   -1.8708    2.8000    0.0000 C   0  0  0  0  0  0  0  0  0  0  0  0
   -3.0708    2.1000    0.0000 C   0  0  0  0  0  0  0  0  0  0  0  0
   -2.3125   -2.1000    0.0000 C   0  0  0  0  0  0  0  0  0  0  0  0
   -3.4708    2.8000    0.0000 C   0  0  0  0  0  0  0  0  0  0  0  0
   -2.2708    3.5000    0.0000 C   0  0  0  0  0  0  0  0  0  0  0  0
   -3.0958   -2.1000    0.0000 C   0  0  0  0  0  0  0  0  0  0  0  0
   -3.0708    3.5000    0.0000 C   0  0  0  0  0  0  0  0  0  0  0  0
  2  1  1  0  0  0  0
  3  2  2  0  0  0  0
  4  5  2  0  0  0  0
  4  3  1  0  0  0  0
  5  6  1  0  0  0  0
  6  1  2  0  0  0  0
  7  1  1  0  0  0  0
  8  9  1  0  0  0  0
  9  3  1  0  0  0  0
 10  7  2  0  0  0  0
 11  5  1  0  0  0  0
 12  8  2  0  0  0  0
 13 12  1  0  0  0  0
 14 17  1  0  0  0  0
 14 18  2  0  0  0  0
 15 14  1  0  0  0  0
 16 10  1  0  0  0  0
 17 20  2  0  0  0  0
 18 19  1  0  0  0  0
 19 13  2  0  0  0  0
 20 13  1  0  0  0  0
 21  7  1  0  0  0  0
 22 10  1  0  0  0  0
 23 11  1  0  0  0  0
 24 11  2  0  0  0  0
 25 21  2  0  0  0  0
 26 24  1  0  0  0  0
 27 23  2  0  0  0  0
 28 25  1  0  0  0  0
 28 22  2  0  0  0  0
 29 26  2  0  0  0  0
 29 27  1  0  0  0  0
M  END
>  <ID>
5341514

>  <Supplier>
ChemBridge

>  <clogP>
6.490000000000000e+000

>  <RB>
5

>  <tPSA>
7.040000000000001e+001

>  <Hacc>
4

>  <Hdon>
2

>  <LogSw>
-7.408000000000000e+000

>  <Group>
1

>  <Core>
181

$$$$
5341515
 OpenBabel03312015312D

 29 32  0  0  0  0  0  0  0  0999 V2000
   -1.8958    0.0000    0.0000 C   0  0  0  0  0  0  0  0  0  0  0  0
   -1.0708    0.0000    0.0000 N   0  0  0  0  0  0  0  0  0  0  0  0
   -0.6708    0.7000    0.0000 C   0  0  0  0  0  0  0  0  0  0  0  0
   -1.0708    1.4000    0.0000 N   0  0  0  0  0  0  0  0  0  0  0  0
   -1.8708    1.4000    0.0000 C   0  0  0  0  0  0  0  0  0  0  0  0
   -2.2958    0.7000    0.0000 C   0  0  0  0  0  0  0  0  0  0  0  0
   -2.2958   -0.7000    0.0000 C   0  0  0  0  0  0  0  0  0  0  0  0
    0.5500    0.0000    0.0000 N   0  0  0  0  0  0  0  0  0  0  0  0
    0.1500    0.7000    0.0000 N   0  0  0  0  0  0  0  0  0  0  0  0
   -3.0958   -0.7000    0.0000 C   0  0  0  0  0  0  0  0  0  0  0  0
   -2.2708    2.1000    0.0000 C   0  0  0  0  0  0  0  0  0  0  0  0
    1.3500    0.0000    0.0000 C   0  0  0  0  0  0  0  0  0  0  0  0
    1.7500   -0.7000    0.0000 C   0  0  0  0  0  0  0  0  0  0  0  0
    2.5500   -2.1000    0.0000 C   0  0  0  0  0  0  0  0  0  0  0  0
    2.9500   -2.8000    0.0000 F   0  0  0  0  0  0  0  0  0  0  0  0
   -3.5125    0.0208    0.0000 O   0  0  0  0  0  0  0  0  0  0  0  0
    1.7500   -2.1000    0.0000 C   0  0  0  0  0  0  0  0  0  0  0  0
    2.9500   -1.4000    0.0000 C   0  0  0  0  0  0  0  0  0  0  0  0
    2.5500   -0.7000    0.0000 C   0  0  0  0  0  0  0  0  0  0  0  0
    1.3500   -1.4000    0.0000 C   0  0  0  0  0  0  0  0  0  0  0  0
   -1.8958   -1.4000    0.0000 C   0  0  0  0  0  0  0  0  0  0  0  0
   -3.4958   -1.4000    0.0000 C   0  0  0  0  0  0  0  0  0  0  0  0
   -3.0708    2.1000    0.0000 C   0  0  0  0  0  0  0  0  0  0  0  0
   -1.8708    2.8000    0.0000 C   0  0  0  0  0  0  0  0  0  0  0  0
   -2.3125   -2.1000    0.0000 C   0  0  0  0  0  0  0  0  0  0  0  0
   -2.2708    3.5000    0.0000 C   0  0  0  0  0  0  0  0  0  0  0  0
   -3.0958   -2.1000    0.0000 C   0  0  0  0  0  0  0  0  0  0  0  0
   -3.4708    2.8000    0.0000 C   0  0  0  0  0  0  0  0  0  0  0  0
   -3.0708    3.5000    0.0000 C   0  0  0  0  0  0  0  0  0  0  0  0
  2  1  1  0  0  0  0
  3  2  2  0  0  0  0
  3  4  1  0  0  0  0
  4  5  2  0  0  0  0
  5  6  1  0  0  0  0
  6  1  2  0  0  0  0
  7  1  1  0  0  0  0
  8  9  1  0  0  0  0
  9  3  1  0  0  0  0
 10  7  2  0  0  0  0
 11  5  1  0  0  0  0
 12  8  2  0  0  0  0
 13 12  1  0  0  0  0
 14 17  2  0  0  0  0
 14 18  1  0  0  0  0
 15 14  1  0  0  0  0
 16 10  1  0  0  0  0
 17 20  1  0  0  0  0
 18 19  2  0  0  0  0
 19 13  1  0  0  0  0
 20 13  2  0  0  0  0
 21  7  1  0  0  0  0
 22 10  1  0  0  0  0
 22 27  2  0  0  0  0
 23 11  2  0  0  0  0
 24 11  1  0  0  0  0
 25 21  2  0  0  0  0
 26 24  2  0  0  0  0
 27 25  1  0  0  0  0
 28 23  1  0  0  0  0
 29 26  1  0  0  0  0
 29 28  2  0  0  0  0
M  END
>  <ID>
5341515

>  <Supplier>
ChemBridge

>  <clogP>
5.770000000000001e+000

>  <RB>
5

>  <tPSA>
7.040000000000001e+001

>  <Hacc>
4

>  <Hdon>
2

>  <LogSw>
-6.350000000000000e+000

>  <Group>
1

>  <Core>
181

$$$$
5341510
 OpenBabel03312015312D

 33 37  0  0  0  0  0  0  0  0999 V2000
   -1.8958    0.0000    0.0000 C   0  0  0  0  0  0  0  0  0  0  0  0
   -1.0708    0.0000    0.0000 N   0  0  0  0  0  0  0  0  0  0  0  0
   -0.6708    0.7000    0.0000 C   0  0  0  0  0  0  0  0  0  0  0  0
   -1.0708    1.4000    0.0000 N   0  0  0  0  0  0  0  0  0  0  0  0
    1.7500   -0.7000    0.0000 C   0  0  0  0  0  0  0  0  0  0  0  0
   -1.8708    1.4000    0.0000 C   0  0  0  0  0  0  0  0  0  0  0  0
   -2.2958    0.7000    0.0000 C   0  0  0  0  0  0  0  0  0  0  0  0
   -2.2958   -0.7000    0.0000 C   0  0  0  0  0  0  0  0  0  0  0  0
    1.3500   -1.4000    0.0000 C   0  0  0  0  0  0  0  0  0  0  0  0
    0.5500    0.0000    0.0000 N   0  0  0  0  0  0  0  0  0  0  0  0
    2.5500   -0.7000    0.0000 C   0  0  0  0  0  0  0  0  0  0  0  0
    0.1500    0.7000    0.0000 N   0  0  0  0  0  0  0  0  0  0  0  0
    1.3500    0.0000    0.0000 C   0  0  0  0  0  0  0  0  0  0  0  0
   -3.0958   -0.7000    0.0000 C   0  0  0  0  0  0  0  0  0  0  0  0
   -2.2708    2.1000    0.0000 C   0  0  0  0  0  0  0  0  0  0  0  0
    1.7500   -2.1000    0.0000 C   0  0  0  0  0  0  0  0  0  0  0  0
    2.9500   -1.4000    0.0000 C   0  0  0  0  0  0  0  0  0  0  0  0
    2.5500   -2.1000    0.0000 C   0  0  0  0  0  0  0  0  0  0  0  0
    2.9500    0.0000    0.0000 O   0  0  0  0  0  0  0  0  0  0  0  0
   -3.5125    0.0208    0.0000 O   0  0  0  0  0  0  0  0  0  0  0  0
   -1.8958   -1.4000    0.0000 C   0  0  0  0  0  0  0  0  0  0  0  0
    0.5500   -1.4000    0.0000 C   0  0  0  0  0  0  0  0  0  0  0  0
   -3.4958   -1.4000    0.0000 C   0  0  0  0  0  0  0  0  0  0  0  0
   -1.8708    2.8000    0.0000 C   0  0  0  0  0  0  0  0  0  0  0  0
   -3.0708    2.1000    0.0000 C   0  0  0  0  0  0  0  0  0  0  0  0
    1.3500   -2.8000    0.0000 C   0  0  0  0  0  0  0  0  0  0  0  0
   -2.3125   -2.1000    0.0000 C   0  0  0  0  0  0  0  0  0  0  0  0
    0.1375   -2.0875    0.0000 C   0  0  0  0  0  0  0  0  0  0  0  0
   -2.2708    3.5000    0.0000 C   0  0  0  0  0  0  0  0  0  0  0  0
   -3.0958   -2.1000    0.0000 C   0  0  0  0  0  0  0  0  0  0  0  0
   -3.4708    2.8000    0.0000 C   0  0  0  0  0  0  0  0  0  0  0  0
    0.5375   -2.8000    0.0000 C   0  0  0  0  0  0  0  0  0  0  0  0
   -3.0708    3.5000    0.0000 C   0  0  0  0  0  0  0  0  0  0  0  0
  2  1  1  0  0  0  0
  3  2  2  0  0  0  0
  3  4  1  0  0  0  0
  4  6  2  0  0  0  0
  5 13  1  0  0  0  0
  6  7  1  0  0  0  0
  7  1  2  0  0  0  0
  8  1  1  0  0  0  0
  9  5  2  0  0  0  0
 10 12  1  0  0  0  0
 11  5  1  0  0  0  0
 12  3  1  0  0  0  0
 13 10  2  0  0  0  0
 14  8  2  0  0  0  0
 15  6  1  0  0  0  0
 16  9  1  0  0  0  0
 16 18  2  0  0  0  0
 17 11  2  0  0  0  0
 18 17  1  0  0  0  0
 19 11  1  0  0  0  0
 20 14  1  0  0  0  0
 21  8  1  0  0  0  0
 22  9  1  0  0  0  0
 23 14  1  0  0  0  0
 23 30  2  0  0  0  0
 24 15  1  0  0  0  0
 25 15  2  0  0  0  0
 26 16  1  0  0  0  0
 27 21  2  0  0  0  0
 28 22  2  0  0  0  0
 29 24  2  0  0  0  0
 30 27  1  0  0  0  0
 31 25  1  0  0  0  0
 32 28  1  0  0  0  0
 32 26  2  0  0  0  0
 33 31  2  0  0  0  0
 33 29  1  0  0  0  0
M  END
>  <ID>
5341510

>  <Supplier>
ChemBridge

>  <clogP>
6.130000000000000e+000

>  <RB>
5

>  <tPSA>
9.063000000000002e+001

>  <Hacc>
5

>  <Hdon>
3

>  <LogSw>
-7.008000000000000e+000

>  <Group>
2

>  <Core>
181

$$$$
5719593
 OpenBabel03312015312D

 19 21  0  0  0  0  0  0  0  0999 V2000
   -0.4958    1.8333    0.0000 N   0  0  0  0  0  0  0  0  0  0  0  0
   -0.4958   -0.0292    0.0000 C   0  0  0  0  0  0  0  0  0  0  0  0
    0.3042    0.4333    0.0000 C   0  0  0  0  0  0  0  0  0  0  0  0
   -0.4958    2.7500    0.0000 C   0  0  0  0  0  0  0  0  0  0  0  0
   -0.4958   -0.9667    0.0000 C   0  0  0  0  0  0  0  0  0  0  0  0
    0.3042    1.3708    0.0000 C   0  0  0  0  0  0  0  0  0  0  0  0
    0.3042   -1.4292    0.0000 C   0  0  0  0  0  0  0  0  0  0  0  0
    0.3042    3.2125    0.0000 C   0  0  0  0  0  0  0  0  0  0  0  0
    1.1042    2.7708    0.0000 C   0  0  0  0  0  0  0  0  0  0  0  0
    1.1042    1.8333    0.0000 C   0  0  0  0  0  0  0  0  0  0  0  0
    1.1292   -0.9500    0.0000 O   0  0  0  0  0  0  0  0  0  0  0  0
   -1.2958    3.2125    0.0000 C   0  0  0  0  0  0  0  0  0  0  0  0
   -1.2958   -1.4292    0.0000 C   0  0  0  0  0  0  0  0  0  0  0  0
    0.3042   -2.3500    0.0000 C   0  0  0  0  0  0  0  0  0  0  0  0
    0.3042    4.1375    0.0000 C   0  0  0  0  0  0  0  0  0  0  0  0
   -1.2958    4.1292    0.0000 C   0  0  0  0  0  0  0  0  0  0  0  0
   -0.4958   -2.8042    0.0000 C   0  0  0  0  0  0  0  0  0  0  0  0
   -1.2958   -2.3667    0.0000 C   0  0  0  0  0  0  0  0  0  0  0  0
   -0.4958    4.5917    0.0000 C   0  0  0  0  0  0  0  0  0  0  0  0
  2  3  2  0  0  0  0
  3  6  1  0  0  0  0
  4  1  1  0  0  0  0
  5  2  1  0  0  0  0
  6  1  2  0  0  0  0
  7  5  1  0  0  0  0
  8  4  2  0  0  0  0
  8  9  1  0  0  0  0
  9 10  2  0  0  0  0
 10  6  1  0  0  0  0
 11  7  1  0  0  0  0
 12  4  1  0  0  0  0
 13  5  2  0  0  0  0
 14  7  2  0  0  0  0
 15  8  1  0  0  0  0
 16 12  2  0  0  0  0
 17 18  2  0  0  0  0
 17 14  1  0  0  0  0
 18 13  1  0  0  0  0
 19 16  1  0  0  0  0
 19 15  2  0  0  0  0
M  END
>  <ID>
5719593

>  <Supplier>
ChemBridge

>  <clogP>
3.650000000000000e+000

>  <RB>
2

>  <tPSA>
3.311999999999998e+001

>  <Hacc>
2

>  <Hdon>
1

>  <LogSw>
-3.541000000000000e+000

>  <Group>
2

>  <Core>
275

$$$$
5146521
 OpenBabel03312015312D

 28 30  0  0  0  0  0  0  0  0999 V2000
   -3.2625    1.8333    0.0000 N   0  0  0  0  0  0  0  0  0  0  0  0
   -3.2625    1.1625    0.0000 C   0  0  0  0  0  0  0  0  0  0  0  0
   -4.4333    1.8333    0.0000 C   0  0  0  0  0  0  0  0  0  0  0  0
   -4.4333    1.1625    0.0000 C   0  0  0  0  0  0  0  0  0  0  0  0
   -3.8458    0.8125    0.0000 S   0  0  0  0  0  0  0  0  0  0  0  0
   -2.6500    2.1833    0.0000 C   0  0  0  0  0  0  0  0  0  0  0  0
   -5.0208    0.8125    0.0000 C   0  0  0  0  0  0  0  0  0  0  0  0
    1.6292    3.2500    0.0000 C   0  0  0  0  0  0  0  0  0  0  0  0
   -1.4458    2.1833    0.0000 C   0  0  0  0  0  0  0  0  0  0  0  0
   -2.6708    0.8125    0.0000 S   0  0  0  0  0  0  0  0  0  0  0  0
   -2.0458    1.8333    0.0000 C   0  0  0  0  0  0  0  0  0  0  0  0
   -5.0000    2.1958    0.0000 O   0  0  0  0  0  0  0  0  0  0  0  0
    1.0167    2.9000    0.0000 C   0  0  0  0  0  0  0  0  0  0  0  0
   -0.8458    1.8333    0.0000 N   0  0  0  0  0  0  0  0  0  0  0  0
    1.6375    3.9625    0.0000 O   0  0  0  0  0  0  0  0  0  0  0  0
   -1.4458    2.8833    0.0000 O   0  0  0  0  0  0  0  0  0  0  0  0
    0.3875    3.2708    0.0000 C   0  0  0  0  0  0  0  0  0  0  0  0
    1.0167    2.1833    0.0000 C   0  0  0  0  0  0  0  0  0  0  0  0
   -0.2333    2.1833    0.0000 C   0  0  0  0  0  0  0  0  0  0  0  0
   -5.0208    0.1333    0.0000 C   0  0  0  0  0  0  0  0  0  0  0  0
    2.2542    2.9125    0.0000 O   0  0  0  0  0  0  0  0  0  0  0  0
   -0.2333    2.9000    0.0000 C   0  0  0  0  0  0  0  0  0  0  0  0
    0.4000    1.8208    0.0000 C   0  0  0  0  0  0  0  0  0  0  0  0
   -4.4333   -0.1875    0.0000 C   0  0  0  0  0  0  0  0  0  0  0  0
   -5.6000   -0.1875    0.0000 C   0  0  0  0  0  0  0  0  0  0  0  0
   -5.6000   -0.8792    0.0000 C   0  0  0  0  0  0  0  0  0  0  0  0
   -4.4333   -0.8542    0.0000 C   0  0  0  0  0  0  0  0  0  0  0  0
   -5.0208   -1.2042    0.0000 C   0  0  0  0  0  0  0  0  0  0  0  0
  2  1  1  0  0  0  0
  3  1  1  0  0  0  0
  4  3  1  0  0  0  0
  4  5  1  0  0  0  0
  5  2  1  0  0  0  0
  6  1  1  0  0  0  0
  7  4  2  0  0  0  0
  8 13  1  0  0  0  0
  9 11  1  0  0  0  0
 10  2  2  0  0  0  0
 11  6  1  0  0  0  0
 12  3  2  0  0  0  0
 13 18  1  0  0  0  0
 13 17  2  0  0  0  0
 14  9  1  0  0  0  0
 15  8  2  0  0  0  0
 16  9  2  0  0  0  0
 17 22  1  0  0  0  0
 18 23  2  0  0  0  0
 19 14  1  0  0  0  0
 20  7  1  0  0  0  0
 21  8  1  0  0  0  0
 22 19  2  0  0  0  0
 23 19  1  0  0  0  0
 24 20  1  0  0  0  0
 25 20  2  0  0  0  0
 26 25  1  0  0  0  0
 27 24  2  0  0  0  0
 28 26  2  0  0  0  0
 28 27  1  0  0  0  0
M  END
>  <ID>
5146521

>  <Supplier>
ChemBridge

>  <clogP>
3.180000000000000e+000

>  <RB>
6

>  <tPSA>
8.671000000000001e+001

>  <Hacc>
4

>  <Hdon>
2

>  <LogSw>
-4.923000000000000e+000

>  <Group>
1

>  <Core>
001

$$$$
5146523
 OpenBabel03312015312D

 28 30  0  0  0  0  0  0  0  0999 V2000
   -3.2625    1.8333    0.0000 N   0  0  0  0  0  0  0  0  0  0  0  0
   -3.2625    1.1625    0.0000 C   0  0  0  0  0  0  0  0  0  0  0  0
   -4.4333    1.8333    0.0000 C   0  0  0  0  0  0  0  0  0  0  0  0
   -4.4333    1.1625    0.0000 C   0  0  0  0  0  0  0  0  0  0  0  0
   -3.8458    0.8125    0.0000 S   0  0  0  0  0  0  0  0  0  0  0  0
    0.4000    1.8208    0.0000 C   0  0  0  0  0  0  0  0  0  0  0  0
   -2.6500    2.1833    0.0000 C   0  0  0  0  0  0  0  0  0  0  0  0
   -5.0208    0.8125    0.0000 C   0  0  0  0  0  0  0  0  0  0  0  0
   -0.2333    2.1833    0.0000 C   0  0  0  0  0  0  0  0  0  0  0  0
    0.4000    1.1208    0.0000 C   0  0  0  0  0  0  0  0  0  0  0  0
   -0.8458    1.8333    0.0000 N   0  0  0  0  0  0  0  0  0  0  0  0
   -1.4458    2.1833    0.0000 C   0  0  0  0  0  0  0  0  0  0  0  0
   -2.0458    1.8333    0.0000 C   0  0  0  0  0  0  0  0  0  0  0  0
   -2.6708    0.8125    0.0000 S   0  0  0  0  0  0  0  0  0  0  0  0
   -5.0000    2.1958    0.0000 O   0  0  0  0  0  0  0  0  0  0  0  0
    1.0000    0.7708    0.0000 O   0  0  0  0  0  0  0  0  0  0  0  0
   -1.4458    2.8833    0.0000 O   0  0  0  0  0  0  0  0  0  0  0  0
   -5.0208    0.1333    0.0000 C   0  0  0  0  0  0  0  0  0  0  0  0
   -0.1958    0.7458    0.0000 O   0  0  0  0  0  0  0  0  0  0  0  0
    1.0167    2.1833    0.0000 C   0  0  0  0  0  0  0  0  0  0  0  0
   -0.2333    2.9000    0.0000 C   0  0  0  0  0  0  0  0  0  0  0  0
   -4.4333   -0.1875    0.0000 C   0  0  0  0  0  0  0  0  0  0  0  0
   -5.6000   -0.1875    0.0000 C   0  0  0  0  0  0  0  0  0  0  0  0
    1.0167    2.9000    0.0000 C   0  0  0  0  0  0  0  0  0  0  0  0
    0.3875    3.2708    0.0000 C   0  0  0  0  0  0  0  0  0  0  0  0
   -5.6000   -0.8792    0.0000 C   0  0  0  0  0  0  0  0  0  0  0  0
   -4.4333   -0.8542    0.0000 C   0  0  0  0  0  0  0  0  0  0  0  0
   -5.0208   -1.2042    0.0000 C   0  0  0  0  0  0  0  0  0  0  0  0
  2  1  1  0  0  0  0
  3  1  1  0  0  0  0
  4  3  1  0  0  0  0
  4  5  1  0  0  0  0
  5  2  1  0  0  0  0
  6  9  1  0  0  0  0
  7  1  1  0  0  0  0
  8  4  2  0  0  0  0
  9 11  1  0  0  0  0
 10  6  1  0  0  0  0
 11 12  1  0  0  0  0
 12 13  1  0  0  0  0
 13  7  1  0  0  0  0
 14  2  2  0  0  0  0
 15  3  2  0  0  0  0
 16 10  2  0  0  0  0
 17 12  2  0  0  0  0
 18  8  1  0  0  0  0
 19 10  1  0  0  0  0
 20  6  2  0  0  0  0
 20 24  1  0  0  0  0
 21  9  2  0  0  0  0
 22 18  1  0  0  0  0
 23 18  2  0  0  0  0
 24 25  2  0  0  0  0
 25 21  1  0  0  0  0
 26 23  1  0  0  0  0
 27 22  2  0  0  0  0
 28 26  2  0  0  0  0
 28 27  1  0  0  0  0
M  END
>  <ID>
5146523

>  <Supplier>
ChemBridge

>  <clogP>
3.810000000000000e+000

>  <RB>
6

>  <tPSA>
8.671000000000001e+001

>  <Hacc>
4

>  <Hdon>
2

>  <LogSw>
-5.461000000000000e+000

>  <Group>
3

>  <Core>
001

$$$$
5489453
 OpenBabel03312015312D

 15 15  0  0  0  0  0  0  0  0999 V2000
    0.9000   -3.7167    0.0000 N   0  0  0  0  0  0  0  0  0  0  0  0
    3.9000   -2.4292    0.0000 C   0  0  3  0  0  0  0  0  0  0  0  0
    5.0292   -1.7792    0.0000 N   0  0  0  0  0  0  0  0  0  0  0  0
    4.2792   -3.0792    0.0000 O   0  0  0  0  0  0  0  0  0  0  0  0
    0.5167   -4.3542    0.0000 C   0  0  0  0  0  0  0  0  0  0  0  0
    2.7792   -3.0792    0.0000 O   0  0  0  0  0  0  0  0  0  0  0  0
    4.2792   -1.7792    0.0000 C   0  0  0  0  0  0  0  0  0  0  0  0
    3.1500   -2.4292    0.0000 C   0  0  0  0  0  0  0  0  0  0  0  0
    1.6500   -3.7167    0.0000 C   0  0  0  0  0  0  0  0  0  0  0  0
    2.0292   -3.0667    0.0000 C   0  0  0  0  0  0  0  0  0  0  0  0
   -0.2208   -4.3500    0.0000 C   0  0  0  0  0  0  0  0  0  0  0  0
    0.8875   -5.0042    0.0000 C   0  0  0  0  0  0  0  0  0  0  0  0
   -0.6000   -4.9875    0.0000 C   0  0  0  0  0  0  0  0  0  0  0  0
    0.5000   -5.6542    0.0000 C   0  0  0  0  0  0  0  0  0  0  0  0
   -0.2458   -5.6500    0.0000 C   0  0  0  0  0  0  0  0  0  0  0  0
  2  8  1  0  0  0  0
  3  7  1  0  0  0  0
  4  2  1  0  0  0  0
  5  1  1  0  0  0  0
  6 10  1  0  0  0  0
  7  2  1  0  0  0  0
  8  6  1  0  0  0  0
  9  1  1  0  0  0  0
 10  9  1  0  0  0  0
 11  5  1  0  0  0  0
 12  5  1  0  0  0  0
 13 11  1  0  0  0  0
 14 12  1  0  0  0  0
 15 14  1  0  0  0  0
 15 13  1  0  0  0  0
M  END
>  <ID>
5489453

>  <Supplier>
ChemBridge

>  <clogP>
3.500000000000000e-001

>  <RB>
7

>  <tPSA>
6.751000000000002e+001

>  <Hacc>
4

>  <Hdon>
3

>  <LogSw>
-7.000000000000001e-002

>  <Group>
3

$$$$
7049386
 OpenBabel03312015312D

 26 28  0  0  0  0  0  0  0  0999 V2000
   -0.7833    1.2958    0.0000 N   0  0  0  0  0  0  0  0  0  0  0  0
   -0.5333    0.5083    0.0000 C   0  0  0  0  0  0  0  0  0  0  0  0
   -0.1208    1.7750    0.0000 C   0  0  0  0  0  0  0  0  0  0  0  0
    0.5500    1.2958    0.0000 C   0  0  0  0  0  0  0  0  0  0  0  0
    0.2917    0.5083    0.0000 N   0  0  0  0  0  0  0  0  0  0  0  0
    0.4667    4.2542    0.0000 N   0  3  0  0  0  0  0  0  0  0  0  0
    1.0667    3.7083    0.0000 C   0  0  0  0  0  0  0  0  0  0  0  0
    1.3375    1.5458    0.0000 C   0  0  0  0  0  0  0  0  0  0  0  0
   -1.5708    1.5458    0.0000 C   0  0  0  0  0  0  0  0  0  0  0  0
    1.8542    3.9583    0.0000 C   0  0  0  0  0  0  0  0  0  0  0  0
    0.9000    2.9083    0.0000 C   0  0  0  0  0  0  0  0  0  0  0  0
    0.6375    5.0667    0.0000 O   0  5  0  0  0  0  0  0  0  0  0  0
   -1.0208   -0.1542    0.0000 O   0  0  0  0  0  0  0  0  0  0  0  0
   -0.3208    4.0125    0.0000 O   0  0  0  0  0  0  0  0  0  0  0  0
   -0.1208    2.6000    0.0000 O   0  0  0  0  0  0  0  0  0  0  0  0
    1.5042    2.3458    0.0000 C   0  0  0  0  0  0  0  0  0  0  0  0
    2.4625    3.4208    0.0000 C   0  0  0  0  0  0  0  0  0  0  0  0
   -1.7458    2.3500    0.0000 C   0  0  0  0  0  0  0  0  0  0  0  0
    2.2917    2.6083    0.0000 C   0  0  0  0  0  0  0  0  0  0  0  0
    2.0292    4.7542    0.0000 Cl  0  0  0  0  0  0  0  0  0  0  0  0
   -2.0750    3.9708    0.0000 C   0  0  0  0  0  0  0  0  0  0  0  0
   -2.2500    4.7750    0.0000 F   0  0  0  0  0  0  0  0  0  0  0  0
   -1.1250    2.9083    0.0000 C   0  0  0  0  0  0  0  0  0  0  0  0
   -2.5208    2.6083    0.0000 C   0  0  0  0  0  0  0  0  0  0  0  0
   -1.2958    3.7125    0.0000 C   0  0  0  0  0  0  0  0  0  0  0  0
   -2.6958    3.4208    0.0000 C   0  0  0  0  0  0  0  0  0  0  0  0
  2  1  1  0  0  0  0
  3  1  1  0  0  0  0
  4  3  1  0  0  0  0
  5  2  1  0  0  0  0
  5  4  1  0  0  0  0
  6  7  1  0  0  0  0
  7 11  1  0  0  0  0
  8  4  2  0  0  0  0
  9  1  1  0  0  0  0
 10 17  1  0  0  0  0
 10  7  2  0  0  0  0
 11 16  2  0  0  0  0
 12  6  1  0  0  0  0
 13  2  2  0  0  0  0
 14  6  2  0  0  0  0
 15  3  2  0  0  0  0
 16  8  1  0  0  0  0
 17 19  2  0  0  0  0
 18  9  1  0  0  0  0
 19 16  1  0  0  0  0
 20 10  1  0  0  0  0
 21 26  1  0  0  0  0
 22 21  1  0  0  0  0
 23 18  2  0  0  0  0
 24 18  1  0  0  0  0
 25 23  1  0  0  0  0
 25 21  2  0  0  0  0
 26 24  2  0  0  0  0
M  CHG  2   6   1  12  -1
M  END
>  <ID>
7049386

>  <Supplier>
ChemBridge

>  <clogP>
3.030000000000000e+000

>  <RB>
3

>  <tPSA>
9.255000000000003e+001

>  <Hacc>
4

>  <Hdon>
1

>  <LogSw>
-4.917000000000000e+000

>  <Group>
2

>  <Core>
003

$$$$
5734950
 OpenBabel03312015312D

 19 20  0  0  0  0  0  0  0  0999 V2000
    0.4417    0.6208    0.0000 N   0  0  0  0  0  0  0  0  0  0  0  0
    0.4417   -0.1292    0.0000 C   0  0  0  0  0  0  0  0  0  0  0  0
    1.7375    0.6208    0.0000 C   0  0  0  0  0  0  0  0  0  0  0  0
    1.7375   -0.1292    0.0000 C   0  0  0  0  0  0  0  0  0  0  0  0
    1.0875   -0.5042    0.0000 S   0  0  0  0  0  0  0  0  0  0  0  0
    2.3792   -0.5042    0.0000 C   0  0  0  0  0  0  0  0  0  0  0  0
    2.3792   -2.7542    0.0000 C   0  0  0  0  0  0  0  0  0  0  0  0
    1.7375   -2.3792    0.0000 C   0  0  0  0  0  0  0  0  0  0  0  0
    3.0417   -2.3792    0.0000 C   0  0  0  0  0  0  0  0  0  0  0  0
    2.3792   -1.2542    0.0000 C   0  0  0  0  0  0  0  0  0  0  0  0
   -0.2083   -0.5000    0.0000 S   0  0  0  0  0  0  0  0  0  0  0  0
    1.7375   -1.6250    0.0000 C   0  0  0  0  0  0  0  0  0  0  0  0
    3.0375   -1.6292    0.0000 C   0  0  0  0  0  0  0  0  0  0  0  0
    2.2667    1.1583    0.0000 O   0  0  0  0  0  0  0  0  0  0  0  0
   -0.0958    1.1583    0.0000 C   0  0  0  0  0  0  0  0  0  0  0  0
    3.6875   -2.7542    0.0000 Br  0  0  0  0  0  0  0  0  0  0  0  0
    1.0875   -2.7500    0.0000 Br  0  0  0  0  0  0  0  0  0  0  0  0
    2.3792   -3.5000    0.0000 O   0  0  0  0  0  0  0  0  0  0  0  0
   -0.8208    0.9583    0.0000 C   0  0  0  0  0  0  0  0  0  0  0  0
  2  1  1  0  0  0  0
  3  1  1  0  0  0  0
  4  3  1  0  0  0  0
  4  5  1  0  0  0  0
  5  2  1  0  0  0  0
  6  4  2  0  0  0  0
  7  9  1  0  0  0  0
  7  8  2  0  0  0  0
  8 12  1  0  0  0  0
  9 13  2  0  0  0  0
 10  6  1  0  0  0  0
 11  2  2  0  0  0  0
 12 10  2  0  0  0  0
 13 10  1  0  0  0  0
 14  3  2  0  0  0  0
 15  1  1  0  0  0  0
 16  9  1  0  0  0  0
 17  8  1  0  0  0  0
 18  7  1  0  0  0  0
 19 15  1  0  0  0  0
M  END
>  <ID>
5734950

>  <Supplier>
ChemBridge

>  <clogP>
3.550000000000000e+000

>  <RB>
1

>  <tPSA>
4.053999999999999e+001

>  <Hacc>
2

>  <Hdon>
1

>  <LogSw>
-4.736000000000002e+000

>  <Group>
1

>  <Core>
001

$$$$
9014418
 OpenBabel03312015312D

 24 26  0  0  0  0  0  0  0  0999 V2000
    3.0917    1.0375    0.0000 N   0  0  0  0  0  0  0  0  0  0  0  0
    3.8417    1.0375    0.0000 C   0  0  0  0  0  0  0  0  0  0  0  0
    2.7167    0.3875    0.0000 C   0  0  0  0  0  0  0  0  0  0  0  0
    7.2167    1.6875    0.0000 N   0  0  0  0  0  0  0  0  0  0  0  0
    1.9667    0.3875    0.0000 C   0  0  0  0  0  0  0  0  0  0  0  0
    1.5292    0.9958    0.0000 S   0  0  0  0  0  0  0  0  0  0  0  0
    6.4667    1.6875    0.0000 C   0  0  0  0  0  0  0  0  0  0  0  0
    4.2167    1.6875    0.0000 N   0  0  0  0  0  0  0  0  0  0  0  0
    4.2167    0.3875    0.0000 S   0  0  0  0  0  0  0  0  0  0  0  0
    3.0917   -0.2625    0.0000 O   0  0  0  0  0  0  0  0  0  0  0  0
    1.5292   -0.2167    0.0000 C   0  0  0  0  0  0  0  0  0  0  0  0
    0.8125    0.7625    0.0000 C   0  0  0  0  0  0  0  0  0  0  0  0
    7.5917    1.0375    0.0000 C   0  0  3  0  0  0  0  0  0  0  0  0
    0.8125    0.0125    0.0000 C   0  0  0  0  0  0  0  0  0  0  0  0
    6.0917    1.0375    0.0000 C   0  0  0  0  0  0  0  0  0  0  0  0
    6.0917    2.3375    0.0000 C   0  0  0  0  0  0  0  0  0  0  0  0
    4.9667    1.6875    0.0000 C   0  0  0  0  0  0  0  0  0  0  0  0
    5.3417    2.3375    0.0000 C   0  0  0  0  0  0  0  0  0  0  0  0
    5.3417    1.0375    0.0000 C   0  0  0  0  0  0  0  0  0  0  0  0
    7.5917    2.3375    0.0000 C   0  0  0  0  0  0  0  0  0  0  0  0
    7.2167    0.3875    0.0000 C   0  0  0  0  0  0  0  0  0  0  0  0
    8.3417    1.0375    0.0000 C   0  0  0  0  0  0  0  0  0  0  0  0
    8.3417    2.3375    0.0000 C   0  0  0  0  0  0  0  0  0  0  0  0
    8.7167    1.6875    0.0000 C   0  0  0  0  0  0  0  0  0  0  0  0
  2  1  1  0  0  0  0
  3  1  1  0  0  0  0
  4  7  1  0  0  0  0
  5  3  1  0  0  0  0
  6  5  1  0  0  0  0
  7 15  1  0  0  0  0
  7 16  2  0  0  0  0
  8  2  1  0  0  0  0
  9  2  2  0  0  0  0
 10  3  2  0  0  0  0
 11  5  2  0  0  0  0
 12  6  1  0  0  0  0
 13  4  1  0  0  0  0
 14 11  1  0  0  0  0
 14 12  2  0  0  0  0
 15 19  2  0  0  0  0
 16 18  1  0  0  0  0
 17  8  1  0  0  0  0
 18 17  2  0  0  0  0
 19 17  1  0  0  0  0
 20  4  1  0  0  0  0
 21 13  1  0  0  0  0
 22 13  1  0  0  0  0
 22 24  1  0  0  0  0
 23 20  1  0  0  0  0
 24 23  1  0  0  0  0
M  END
>  <ID>
9014418

>  <Supplier>
ChemBridge

>  <clogP>
4.275000000000000e+000

>  <RB>
3

>  <tPSA>
4.437000000000001e+001

>  <Hacc>
1

>  <Hdon>
2

>  <LogSw>
-5.472000000000000e+000

>  <Group>
1

>  <Core>
071

$$$$
9014419
 OpenBabel03312015312D

 23 24  0  0  0  0  0  0  0  0999 V2000
    1.1625    2.1625    0.0000 N   0  3  0  0  0  0  0  0  0  0  0  0
    5.2875    2.8125    0.0000 C   0  0  0  0  0  0  0  0  0  0  0  0
    4.5375    2.8125    0.0000 C   0  0  0  0  0  0  0  0  0  0  0  0
    4.1625    2.1625    0.0000 N   0  0  0  0  0  0  0  0  0  0  0  0
    5.6625    2.1625    0.0000 C   0  0  0  0  0  0  0  0  0  0  0  0
    1.9125    2.1625    0.0000 C   0  0  0  0  0  0  0  0  0  0  0  0
    2.2875    1.5125    0.0000 C   0  0  0  0  0  0  0  0  0  0  0  0
    3.4125    2.1625    0.0000 C   0  0  0  0  0  0  0  0  0  0  0  0
    3.0375    1.5125    0.0000 C   0  0  0  0  0  0  0  0  0  0  0  0
    0.7875    2.8125    0.0000 O   0  5  0  0  0  0  0  0  0  0  0  0
    0.7875    1.5125    0.0000 O   0  0  0  0  0  0  0  0  0  0  0  0
    4.1625    3.4625    0.0000 O   0  0  0  0  0  0  0  0  0  0  0  0
    6.4125    2.1625    0.0000 C   0  0  0  0  0  0  0  0  0  0  0  0
    2.2875    2.8125    0.0000 C   0  0  0  0  0  0  0  0  0  0  0  0
    3.0375    2.8125    0.0000 C   0  0  0  0  0  0  0  0  0  0  0  0
    5.2875    1.5125    0.0000 O   0  0  0  0  0  0  0  0  0  0  0  0
    5.6625    3.4625    0.0000 C   0  0  0  0  0  0  0  0  0  0  0  0
    3.4125    0.8625    0.0000 O   0  0  0  0  0  0  0  0  0  0  0  0
    6.4125    3.4625    0.0000 C   0  0  0  0  0  0  0  0  0  0  0  0
    6.7875    2.8125    0.0000 C   0  0  0  0  0  0  0  0  0  0  0  0
    6.7875    1.5125    0.0000 C   0  0  0  0  0  0  0  0  0  0  0  0
    5.6625    0.8625    0.0000 C   0  0  0  0  0  0  0  0  0  0  0  0
    3.0375    0.2208    0.0000 C   0  0  0  0  0  0  0  0  0  0  0  0
  2  3  1  0  0  0  0
  3  4  1  0  0  0  0
  4  8  1  0  0  0  0
  5  2  1  0  0  0  0
  6  1  1  0  0  0  0
  7  6  1  0  0  0  0
  8 15  2  0  0  0  0
  9  7  2  0  0  0  0
  9  8  1  0  0  0  0
 10  1  1  0  0  0  0
 11  1  2  0  0  0  0
 12  3  2  0  0  0  0
 13  5  2  0  0  0  0
 14  6  2  0  0  0  0
 15 14  1  0  0  0  0
 16  5  1  0  0  0  0
 17  2  2  0  0  0  0
 18  9  1  0  0  0  0
 19 17  1  0  0  0  0
 20 19  2  0  0  0  0
 20 13  1  0  0  0  0
 21 13  1  0  0  0  0
 22 16  1  0  0  0  0
 23 18  1  0  0  0  0
M  CHG  2   1   1  10  -1
M  END
>  <ID>
9014419

>  <Supplier>
ChemBridge

>  <clogP>
2.942000000000000e+000

>  <RB>
2

>  <tPSA>
9.070000000000000e+001

>  <Hacc>
5

>  <Hdon>
1

>  <LogSw>
-4.409000000000002e+000

>  <Group>
1

>  <Core>
511

$$$$
7206848
 OpenBabel03312015312D

 20 21  0  0  0  0  0  0  0  0999 V2000
   -0.8125    1.5833    0.0000 C   0  0  0  0  0  0  0  0  0  0  0  0
    1.7875    1.5833    0.0000 N   0  0  0  0  0  0  0  0  0  0  0  0
   -1.4625    1.2083    0.0000 C   0  0  0  0  0  0  0  0  0  0  0  0
   -2.1125    1.5833    0.0000 C   0  0  0  0  0  0  0  0  0  0  0  0
   -0.1625    1.2083    0.0000 O   0  0  0  0  0  0  0  0  0  0  0  0
   -0.8125    2.3333    0.0000 O   0  0  0  0  0  0  0  0  0  0  0  0
    3.0792    2.3333    0.0000 O   0  0  0  0  0  0  0  0  0  0  0  0
    1.1375    1.2083    0.0000 C   0  0  0  0  0  0  0  0  0  0  0  0
    0.4875    1.5833    0.0000 C   0  0  3  0  0  0  0  0  0  0  0  0
   -2.7625    1.2083    0.0000 C   0  0  0  0  0  0  0  0  0  0  0  0
    1.7875    2.3333    0.0000 C   0  0  0  0  0  0  0  0  0  0  0  0
    2.4292    1.2083    0.0000 C   0  0  0  0  0  0  0  0  0  0  0  0
    3.0792    1.5833    0.0000 C   0  0  0  0  0  0  0  0  0  0  0  0
    2.4292    2.7083    0.0000 C   0  0  0  0  0  0  0  0  0  0  0  0
    0.4875    2.3333    0.0000 C   0  0  0  0  0  0  0  0  0  0  0  0
   -2.7625    0.4583    0.0000 C   0  0  0  0  0  0  0  0  0  0  0  0
   -3.4125    1.5833    0.0000 C   0  0  0  0  0  0  0  0  0  0  0  0
   -3.4125    0.0833    0.0000 C   0  0  0  0  0  0  0  0  0  0  0  0
   -4.0583    1.2083    0.0000 C   0  0  0  0  0  0  0  0  0  0  0  0
   -4.0583    0.4583    0.0000 C   0  0  0  0  0  0  0  0  0  0  0  0
  2  8  1  0  0  0  0
  3  1  1  0  0  0  0
  4  3  2  0  0  0  0
  5  1  1  0  0  0  0
  6  1  2  0  0  0  0
  7 14  1  0  0  0  0
  8  9  1  0  0  0  0
  9  5  1  0  0  0  0
 10  4  1  0  0  0  0
 11  2  1  0  0  0  0
 12  2  1  0  0  0  0
 13 12  1  0  0  0  0
 13  7  1  0  0  0  0
 14 11  1  0  0  0  0
 15  9  1  0  0  0  0
 16 10  2  0  0  0  0
 17 10  1  0  0  0  0
 18 16  1  0  0  0  0
 19 17  2  0  0  0  0
 19 20  1  0  0  0  0
 20 18  2  0  0  0  0
M  END
>  <ID>
7206848

>  <Supplier>
ChemBridge

>  <clogP>
3.300000000000000e+000

>  <RB>
6

>  <tPSA>
3.877000000000000e+001

>  <Hacc>
4

>  <Hdon>
0

>  <LogSw>
-3.019000000000000e+000

>  <Group>
3

>  <Core>
435

$$$$
9014415
 OpenBabel03312015312D

 21 22  0  0  0  0  0  0  0  0999 V2000
    1.6667    1.9833    0.0000 N   0  0  0  0  0  0  0  0  0  0  0  0
    1.0167    2.3583    0.0000 C   0  0  0  0  0  0  0  0  0  0  0  0
    2.9667    1.2333    0.0000 O   0  0  0  0  0  0  0  0  0  0  0  0
    2.3167    2.3583    0.0000 C   0  0  0  0  0  0  0  0  0  0  0  0
    1.6667    1.2333    0.0000 C   0  0  0  0  0  0  0  0  0  0  0  0
    0.3667    1.9833    0.0000 C   0  0  0  0  0  0  0  0  0  0  0  0
   -2.2333    1.2333    0.0000 C   0  0  0  0  0  0  0  0  0  0  0  0
    1.0167    3.1083    0.0000 O   0  0  0  0  0  0  0  0  0  0  0  0
    2.3167    0.8583    0.0000 C   0  0  3  0  0  0  0  0  0  0  0  0
    2.9667    1.9833    0.0000 C   0  0  3  0  0  0  0  0  0  0  0  0
   -1.5833    0.8583    0.0000 O   0  0  0  0  0  0  0  0  0  0  0  0
   -2.2333    1.9833    0.0000 O   0  0  0  0  0  0  0  0  0  0  0  0
   -0.2833    2.3583    0.0000 C   0  0  0  0  0  0  0  0  0  0  0  0
    0.3667    1.2333    0.0000 C   0  0  0  0  0  0  0  0  0  0  0  0
   -0.9333    1.2333    0.0000 C   0  0  0  0  0  0  0  0  0  0  0  0
   -0.2833    0.8583    0.0000 C   0  0  0  0  0  0  0  0  0  0  0  0
   -0.9333    1.9833    0.0000 C   0  0  0  0  0  0  0  0  0  0  0  0
   -2.8833    0.8583    0.0000 C   0  0  0  0  0  0  0  0  0  0  0  0
    2.3167    0.1083    0.0000 C   0  0  0  0  0  0  0  0  0  0  0  0
    3.6167    2.3583    0.0000 C   0  0  0  0  0  0  0  0  0  0  0  0
   -3.5333    1.2333    0.0000 C   0  0  0  0  0  0  0  0  0  0  0  0
  2  1  1  0  0  0  0
  3  9  1  0  0  0  0
  4  1  1  0  0  0  0
  5  1  1  0  0  0  0
  6  2  1  0  0  0  0
  7 11  1  0  0  0  0
  8  2  2  0  0  0  0
  9  5  1  0  0  0  0
 10  4  1  0  0  0  0
 10  3  1  0  0  0  0
 11 15  1  0  0  0  0
 12  7  2  0  0  0  0
 13  6  2  0  0  0  0
 14  6  1  0  0  0  0
 15 16  1  0  0  0  0
 16 14  2  0  0  0  0
 17 13  1  0  0  0  0
 17 15  2  0  0  0  0
 18  7  1  0  0  0  0
 19  9  1  0  0  0  0
 20 10  1  0  0  0  0
 21 18  1  0  0  0  0
M  END
>  <ID>
9014415

>  <Supplier>
ChemBridge

>  <clogP>
1.989000000000000e+000

>  <RB>
3

>  <tPSA>
5.584000000000000e+001

>  <Hacc>
4

>  <Hdon>
0

>  <LogSw>
-3.024000000000000e+000

>  <Group>
2

$$$$
6459502
 OpenBabel03312015312D

 32 35  0  0  0  0  0  0  0  0999 V2000
    4.1917    2.7208    0.0000 N   0  0  0  0  0  0  0  0  0  0  0  0
    4.3417    4.0917    0.0000 C   0  0  0  0  0  0  0  0  0  0  0  0
    3.0750    4.6667    0.0000 O   0  0  0  0  0  0  0  0  0  0  0  0
   12.8500    7.5667    0.0000 C   0  0  0  0  0  0  0  0  0  0  0  0
   14.0625    6.8667    0.0000 C   0  0  0  0  0  0  0  0  0  0  0  0
    2.8167    2.4208    0.0000 C   0  0  0  0  0  0  0  0  0  0  0  0
   11.6417    6.8667    0.0000 N   0  0  0  0  0  0  0  0  0  0  0  0
    2.1167    3.6458    0.0000 C   0  0  0  0  0  0  0  0  0  0  0  0
   10.4292    7.5667    0.0000 C   0  0  0  0  0  0  0  0  0  0  0  0
    0.7125    3.6500    0.0000 C   0  0  0  0  0  0  0  0  0  0  0  0
    5.5667    4.7917    0.0000 C   0  0  0  0  0  0  0  0  0  0  0  0
    9.2250    6.8667    0.0000 N   0  0  0  0  0  0  0  0  0  0  0  0
   15.2917    7.5667    0.0000 C   0  0  0  0  0  0  0  0  0  0  0  0
   10.4292    8.9667    0.0000 S   0  0  0  0  0  0  0  0  0  0  0  0
   14.0750    5.4667    0.0000 C   0  0  0  0  0  0  0  0  0  0  0  0
    2.0917    1.1958    0.0000 C   0  0  0  0  0  0  0  0  0  0  0  0
   12.8500    8.9667    0.0000 O   0  0  0  0  0  0  0  0  0  0  0  0
    0.0000    2.4458    0.0000 C   0  0  0  0  0  0  0  0  0  0  0  0
    0.7000    1.2125    0.0000 C   0  0  0  0  0  0  0  0  0  0  0  0
    6.7792    4.0792    0.0000 C   0  0  0  0  0  0  0  0  0  0  0  0
    5.5750    6.1917    0.0000 C   0  0  0  0  0  0  0  0  0  0  0  0
   16.5000    6.8542    0.0000 C   0  0  0  0  0  0  0  0  0  0  0  0
    8.0042    6.1667    0.0000 C   0  0  0  0  0  0  0  0  0  0  0  0
   15.2917    4.7542    0.0000 C   0  0  0  0  0  0  0  0  0  0  0  0
    7.9917    4.7667    0.0000 C   0  0  0  0  0  0  0  0  0  0  0  0
    6.8000    6.8917    0.0000 C   0  0  0  0  0  0  0  0  0  0  0  0
   16.5000    5.4542    0.0000 C   0  0  0  0  0  0  0  0  0  0  0  0
   15.2917    3.3625    0.0000 Cl  0  0  0  0  0  0  0  0  0  0  0  0
   15.2917    8.9667    0.0000 O   0  0  0  0  0  0  0  0  0  0  0  0
    0.0167    4.8542    0.0000 C   0  0  0  0  0  0  0  0  0  0  0  0
    0.0000    0.0000    0.0000 C   0  0  0  0  0  0  0  0  0  0  0  0
   16.5125    9.6667    0.0000 C   0  0  0  0  0  0  0  0  0  0  0  0
  2  1  2  0  0  0  0
  3  2  1  0  0  0  0
  3  8  1  0  0  0  0
  4  7  1  0  0  0  0
  5  4  1  0  0  0  0
  6  1  1  0  0  0  0
  7  9  1  0  0  0  0
  8  6  2  0  0  0  0
  9 12  1  0  0  0  0
 10  8  1  0  0  0  0
 11  2  1  0  0  0  0
 12 23  1  0  0  0  0
 13  5  1  0  0  0  0
 14  9  2  0  0  0  0
 15  5  2  0  0  0  0
 16  6  1  0  0  0  0
 17  4  2  0  0  0  0
 18 19  1  0  0  0  0
 18 10  2  0  0  0  0
 19 16  2  0  0  0  0
 20 11  1  0  0  0  0
 21 11  2  0  0  0  0
 22 13  2  0  0  0  0
 22 27  1  0  0  0  0
 23 26  2  0  0  0  0
 24 15  1  0  0  0  0
 25 20  2  0  0  0  0
 25 23  1  0  0  0  0
 26 21  1  0  0  0  0
 27 24  2  0  0  0  0
 28 24  1  0  0  0  0
 29 13  1  0  0  0  0
 30 10  1  0  0  0  0
 31 19  1  0  0  0  0
 32 29  1  0  0  0  0
M  END
>  <ID>
6459502

>  <Supplier>
ChemBridge

>  <clogP>
5.930000000000002e+000

>  <RB>
3

>  <tPSA>
7.639000000000000e+001

>  <Hacc>
4

>  <Hdon>
2

>  <LogSw>
-7.659999999999998e+000

>  <Group>
2

>  <Core>
068

$$$$
9014411
 OpenBabel03312015312D

 23 24  0  0  0  0  0  0  0  0999 V2000
    2.1167    0.9500    0.0000 C   0  0  0  0  0  0  0  0  0  0  0  0
    2.4917    1.6000    0.0000 C   0  0  0  0  0  0  0  0  0  0  0  0
    1.3667    0.9500    0.0000 N   0  0  0  0  0  0  0  0  0  0  0  0
    3.2417    1.6000    0.0000 C   0  0  0  0  0  0  0  0  0  0  0  0
    0.9917    0.3000    0.0000 C   0  0  0  0  0  0  0  0  0  0  0  0
    0.2417    0.3000    0.0000 C   0  0  0  0  0  0  0  0  0  0  0  0
    3.6167    0.9500    0.0000 O   0  0  0  0  0  0  0  0  0  0  0  0
    4.3667    0.9500    0.0000 C   0  0  0  0  0  0  0  0  0  0  0  0
   -0.1333    0.9500    0.0000 C   0  0  0  0  0  0  0  0  0  0  0  0
    2.4917    0.3000    0.0000 O   0  0  0  0  0  0  0  0  0  0  0  0
    4.7417    0.3000    0.0000 O   0  0  0  0  0  0  0  0  0  0  0  0
    2.1167    2.2500    0.0000 C   0  0  0  0  0  0  0  0  0  0  0  0
    3.6167    2.2500    0.0000 C   0  0  0  0  0  0  0  0  0  0  0  0
    1.3667   -0.3500    0.0000 C   0  0  0  0  0  0  0  0  0  0  0  0
   -0.1333   -0.3500    0.0000 C   0  0  0  0  0  0  0  0  0  0  0  0
   -0.8583    0.7583    0.0000 C   0  0  0  0  0  0  0  0  0  0  0  0
    0.5417    1.2708    0.0000 C   0  0  0  0  0  0  0  0  0  0  0  0
   -0.3958    1.6583    0.0000 C   0  0  0  0  0  0  0  0  0  0  0  0
    4.7417    1.6000    0.0000 C   0  0  0  0  0  0  0  0  0  0  0  0
    2.4917    2.9000    0.0000 C   0  0  0  0  0  0  0  0  0  0  0  0
    3.2417    2.9000    0.0000 C   0  0  0  0  0  0  0  0  0  0  0  0
    0.9917   -1.0000    0.0000 C   0  0  0  0  0  0  0  0  0  0  0  0
    0.2417   -1.0000    0.0000 C   0  0  0  0  0  0  0  0  0  0  0  0
  2  1  1  0  0  0  0
  3  1  1  0  0  0  0
  4  2  1  0  0  0  0
  5  3  1  0  0  0  0
  6  5  1  0  0  0  0
  7  4  1  0  0  0  0
  8  7  1  0  0  0  0
  9  6  1  0  0  0  0
 10  1  2  0  0  0  0
 11  8  2  0  0  0  0
 12  2  2  0  0  0  0
 13  4  2  0  0  0  0
 13 21  1  0  0  0  0
 14  5  2  0  0  0  0
 15  6  2  0  0  0  0
 15 23  1  0  0  0  0
 16  9  1  0  0  0  0
 17  9  1  0  0  0  0
 18  9  1  0  0  0  0
 19  8  1  0  0  0  0
 20 12  1  0  0  0  0
 21 20  2  0  0  0  0
 22 14  1  0  0  0  0
 23 22  2  0  0  0  0
M  END
>  <ID>
9014411

>  <Supplier>
ChemBridge

>  <clogP>
3.387000000000000e+000

>  <RB>
5

>  <tPSA>
5.540000000000000e+001

>  <Hacc>
3

>  <Hdon>
1

>  <LogSw>
-4.363000000000000e+000

>  <Group>
1

>  <Core>
511

$$$$
7141301
 OpenBabel03312015312D

 25 26  0  0  0  0  0  0  0  0999 V2000
    4.2000    1.8625    0.0000 S   0  0  0  0  0  0  0  0  0  0  0  0
    0.0000    0.0000    0.0000 S   0  0  0  0  0  0  0  0  0  0  0  0
    5.0292    2.3333    0.0000 N   0  0  0  0  0  0  0  0  0  0  0  0
    0.9375    0.0000    0.0000 N   0  0  0  0  0  0  0  0  0  0  0  0
    3.3875    1.3708    0.0000 C   0  0  0  0  0  0  0  0  0  0  0  0
   -1.0500   -0.4500    0.0000 C   0  0  0  0  0  0  0  0  0  0  0  0
   -0.5708    0.5958    0.0000 O   0  0  0  0  0  0  0  0  0  0  0  0
    3.7167    2.6833    0.0000 O   0  0  0  0  0  0  0  0  0  0  0  0
    4.7000    1.0208    0.0000 O   0  0  0  0  0  0  0  0  0  0  0  0
   -0.1625   -0.8792    0.0000 O   0  0  0  0  0  0  0  0  0  0  0  0
    5.0292    3.2708    0.0000 C   0  0  0  0  0  0  0  0  0  0  0  0
   -1.1500   -1.3667    0.0000 C   0  0  0  0  0  0  0  0  0  0  0  0
    2.5792    1.8333    0.0000 C   0  0  0  0  0  0  0  0  0  0  0  0
    3.3875    0.4333    0.0000 C   0  0  0  0  0  0  0  0  0  0  0  0
   -1.8000    0.1125    0.0000 C   0  0  0  0  0  0  0  0  0  0  0  0
    1.7667    0.4625    0.0000 C   0  0  0  0  0  0  0  0  0  0  0  0
   -2.7708   -1.2167    0.0000 C   0  0  0  0  0  0  0  0  0  0  0  0
    1.7667    1.4000    0.0000 C   0  0  0  0  0  0  0  0  0  0  0  0
    2.5792   -0.0292    0.0000 C   0  0  0  0  0  0  0  0  0  0  0  0
   -1.9958   -1.7667    0.0000 C   0  0  0  0  0  0  0  0  0  0  0  0
   -2.6833   -0.2875    0.0000 C   0  0  0  0  0  0  0  0  0  0  0  0
   -3.6208   -1.5542    0.0000 Cl  0  0  0  0  0  0  0  0  0  0  0  0
    5.0292    4.2000    0.0000 C   0  0  0  0  0  0  0  0  0  0  0  0
    4.1000    3.2708    0.0000 C   0  0  0  0  0  0  0  0  0  0  0  0
    5.9667    3.2708    0.0000 C   0  0  0  0  0  0  0  0  0  0  0  0
  2  4  1  0  0  0  0
  3  1  1  0  0  0  0
  4 16  1  0  0  0  0
  5  1  1  0  0  0  0
  6  2  1  0  0  0  0
  7  2  2  0  0  0  0
  8  1  2  0  0  0  0
  9  1  2  0  0  0  0
 10  2  2  0  0  0  0
 11  3  1  0  0  0  0
 12  6  1  0  0  0  0
 13  5  1  0  0  0  0
 14  5  2  0  0  0  0
 15  6  2  0  0  0  0
 16 19  2  0  0  0  0
 16 18  1  0  0  0  0
 17 21  2  0  0  0  0
 18 13  2  0  0  0  0
 19 14  1  0  0  0  0
 20 12  2  0  0  0  0
 20 17  1  0  0  0  0
 21 15  1  0  0  0  0
 22 17  1  0  0  0  0
 23 11  1  0  0  0  0
 24 11  1  0  0  0  0
 25 11  1  0  0  0  0
M  END
>  <ID>
7141301

>  <Supplier>
ChemBridge

>  <clogP>
3.690000000000000e+000

>  <RB>
4

>  <tPSA>
9.234000000000000e+001

>  <Hacc>
5

>  <Hdon>
2

>  <LogSw>
-5.288000000000000e+000

>  <Group>
3

>  <Core>
235

$$$$
9014413
 OpenBabel03312015312D

 22 23  0  0  0  0  0  0  0  0999 V2000
   -0.6458    4.3667    0.0000 N   0  0  0  0  0  0  0  0  0  0  0  0
   -1.0875    4.9792    0.0000 C   0  0  0  0  0  0  0  0  0  0  0  0
   -1.8000    4.7417    0.0000 N   0  0  0  0  0  0  0  0  0  0  0  0
   -1.8000    4.0000    0.0000 N   0  0  0  0  0  0  0  0  0  0  0  0
   -1.0875    3.7708    0.0000 C   0  0  0  0  0  0  0  0  0  0  0  0
    0.1042    4.3667    0.0000 N   0  0  0  0  0  0  0  0  0  0  0  0
    2.3542    3.0833    0.0000 C   0  0  0  0  0  0  0  0  0  0  0  0
    1.6042    3.0833    0.0000 C   0  0  0  0  0  0  0  0  0  0  0  0
    1.2292    3.7333    0.0000 C   0  0  0  0  0  0  0  0  0  0  0  0
    2.7292    3.7333    0.0000 C   0  0  0  0  0  0  0  0  0  0  0  0
    0.4792    3.7333    0.0000 C   0  0  0  0  0  0  0  0  0  0  0  0
   -0.8583    5.6917    0.0000 S   0  0  0  0  0  0  0  0  0  0  0  0
    1.6042    4.3667    0.0000 C   0  0  0  0  0  0  0  0  0  0  0  0
    2.3542    4.3667    0.0000 C   0  0  0  0  0  0  0  0  0  0  0  0
    2.7292    2.4250    0.0000 O   0  0  0  0  0  0  0  0  0  0  0  0
    1.2292    2.4250    0.0000 O   0  0  0  0  0  0  0  0  0  0  0  0
   -0.8583    3.0583    0.0000 C   0  0  0  0  0  0  0  0  0  0  0  0
    3.4792    3.7333    0.0000 O   0  0  0  0  0  0  0  0  0  0  0  0
    3.4792    2.4250    0.0000 C   0  0  0  0  0  0  0  0  0  0  0  0
    0.4792    2.4250    0.0000 C   0  0  0  0  0  0  0  0  0  0  0  0
    3.8542    4.3667    0.0000 C   0  0  0  0  0  0  0  0  0  0  0  0
   -1.3583    2.5000    0.0000 C   0  0  0  0  0  0  0  0  0  0  0  0
  2  1  1  0  0  0  0
  3  2  2  0  0  0  0
  3  4  1  0  0  0  0
  4  5  2  0  0  0  0
  5  1  1  0  0  0  0
  6  1  1  0  0  0  0
  7  8  2  0  0  0  0
  7 10  1  0  0  0  0
  8  9  1  0  0  0  0
  9 11  1  0  0  0  0
 10 14  2  0  0  0  0
 11  6  1  0  0  0  0
 12  2  1  0  0  0  0
 13  9  2  0  0  0  0
 14 13  1  0  0  0  0
 15  7  1  0  0  0  0
 16  8  1  0  0  0  0
 17  5  1  0  0  0  0
 18 10  1  0  0  0  0
 19 15  1  0  0  0  0
 20 16  1  0  0  0  0
 21 18  1  0  0  0  0
 22 17  1  0  0  0  0
M  END
>  <ID>
9014413

>  <Supplier>
ChemBridge

>  <clogP>
3.101000000000000e+000

>  <RB>
3

>  <tPSA>
7.043000000000001e+001

>  <Hacc>
5

>  <Hdon>
1

>  <LogSw>
-4.214000000000000e+000

>  <Group>
1

$$$$
5771903
 OpenBabel03312015312D

 41 45  0  0  0  0  0  0  0  0999 V2000
   -0.8625    1.5000    0.0000 C   0  0  0  0  0  0  0  0  0  0  0  0
   -1.3625    1.8000    0.0000 C   0  0  0  0  0  0  0  0  0  0  0  0
   -0.3625    1.8000    0.0000 C   0  0  0  0  0  0  0  0  0  0  0  0
   -0.8625    2.6625    0.0000 C   0  0  0  0  0  0  0  0  0  0  0  0
   -1.3625    2.3833    0.0000 C   0  0  0  0  0  0  0  0  0  0  0  0
   -0.3625    2.3833    0.0000 C   0  0  0  0  0  0  0  0  0  0  0  0
   -2.6458    0.0208    0.0000 N   0  0  0  0  0  0  0  0  0  0  0  0
    0.6167   -0.2792    0.0000 N   0  0  0  0  0  0  0  0  0  0  0  0
   -2.5458   -0.5500    0.0000 C   0  0  0  0  0  0  0  0  0  0  0  0
   -3.1833    0.2125    0.0000 C   0  0  0  0  0  0  0  0  0  0  0  0
    1.1875   -0.2000    0.0000 C   0  0  0  0  0  0  0  0  0  0  0  0
    0.4292   -0.8167    0.0000 C   0  0  0  0  0  0  0  0  0  0  0  0
   -0.5000    1.0625    0.0000 C   0  0  0  0  0  0  0  0  0  0  0  0
   -1.3208    1.1458    0.0000 C   0  0  0  0  0  0  0  0  0  0  0  0
    0.2375    0.1833    0.0000 C   0  0  0  0  0  0  0  0  0  0  0  0
   -2.2000    0.4000    0.0000 C   0  0  0  0  0  0  0  0  0  0  0  0
   -0.8625    3.2458    0.0000 O   0  0  0  0  0  0  0  0  0  0  0  0
   -2.9625   -0.9292    0.0000 O   0  0  0  0  0  0  0  0  0  0  0  0
    1.5542   -0.6167    0.0000 O   0  0  0  0  0  0  0  0  0  0  0  0
   -3.3000    0.7625    0.0000 O   0  0  0  0  0  0  0  0  0  0  0  0
   -0.1208   -0.9375    0.0000 O   0  0  0  0  0  0  0  0  0  0  0  0
   -0.7208    0.5208    0.0000 C   0  0  0  0  0  0  0  0  0  0  0  0
   -1.2208    0.5833    0.0000 C   0  0  0  0  0  0  0  0  0  0  0  0
    0.0542    1.1625    0.0000 C   0  0  0  0  0  0  0  0  0  0  0  0
   -1.8625    1.3458    0.0000 C   0  0  0  0  0  0  0  0  0  0  0  0
    0.4375    0.7208    0.0000 C   0  0  0  0  0  0  0  0  0  0  0  0
   -1.6625    0.2000    0.0000 C   0  0  0  0  0  0  0  0  0  0  0  0
   -2.3208    0.9833    0.0000 C   0  0  0  0  0  0  0  0  0  0  0  0
   -0.3458    0.0625    0.0000 C   0  0  0  0  0  0  0  0  0  0  0  0
   -1.8625    1.5000    0.0000 C   0  0  0  0  0  0  0  0  0  0  0  0
    0.1375    1.5000    0.0000 C   0  0  0  0  0  0  0  0  0  0  0  0
   -1.8625    2.6625    0.0000 C   0  0  0  0  0  0  0  0  0  0  0  0
    0.1375    2.6625    0.0000 C   0  0  0  0  0  0  0  0  0  0  0  0
   -3.6333   -0.1292    0.0000 C   0  0  0  0  0  0  0  0  0  0  0  0
    0.7667   -1.2667    0.0000 C   0  0  0  0  0  0  0  0  0  0  0  0
    1.4292    0.3208    0.0000 C   0  0  0  0  0  0  0  0  0  0  0  0
   -2.0125   -0.7792    0.0000 C   0  0  0  0  0  0  0  0  0  0  0  0
    0.6375    1.8000    0.0000 C   0  0  0  0  0  0  0  0  0  0  0  0
   -2.3625    1.8000    0.0000 C   0  0  0  0  0  0  0  0  0  0  0  0
    0.6375    2.3833    0.0000 C   0  0  0  0  0  0  0  0  0  0  0  0
   -2.3625    2.3833    0.0000 C   0  0  0  0  0  0  0  0  0  0  0  0
  2  1  1  0  0  0  0
  3  1  1  0  0  0  0
  4  6  1  0  0  0  0
  5  2  2  0  0  0  0
  5  4  1  0  0  0  0
  6  3  2  0  0  0  0
  7 16  1  0  0  0  0
  8 15  1  0  0  0  0
  9  7  1  0  0  0  0
 10  7  1  0  0  0  0
 11  8  1  0  0  0  0
 12  8  1  0  0  0  0
 13  1  1  0  0  0  0
 14  1  1  0  0  0  0
 15 26  2  0  0  0  0
 15 29  1  0  0  0  0
 16 28  2  0  0  0  0
 16 27  1  0  0  0  0
 17  4  2  0  0  0  0
 18  9  2  0  0  0  0
 19 11  2  0  0  0  0
 20 10  2  0  0  0  0
 21 12  2  0  0  0  0
 22 13  1  0  0  0  0
 23 14  1  0  0  0  0
 24 13  2  0  0  0  0
 25 14  2  0  0  0  0
 26 24  1  0  0  0  0
 27 23  2  0  0  0  0
 28 25  1  0  0  0  0
 29 22  2  0  0  0  0
 30  2  1  0  0  0  0
 31  3  1  0  0  0  0
 32  5  1  0  0  0  0
 33  6  1  0  0  0  0
 34 10  1  0  0  0  0
 35 12  1  0  0  0  0
 36 11  1  0  0  0  0
 37  9  1  0  0  0  0
 38 31  2  0  0  0  0
 39 30  2  0  0  0  0
 40 38  1  0  0  0  0
 40 33  2  0  0  0  0
 41 39  1  0  0  0  0
 41 32  2  0  0  0  0
M  END
>  <ID>
5771903

>  <Supplier>
ChemBridge

>  <clogP>
3.070000000000000e+000

>  <RB>
4

>  <tPSA>
9.183000000000000e+001

>  <Hacc>
5

>  <Hdon>
0

>  <LogSw>
-6.901000000000002e+000

>  <Group>
3

$$$$
9066580
 OpenBabel03312015312D

 21 22  0  0  0  0  0  0  0  0999 V2000
    2.8167    1.0125    0.0000 S   0  0  0  0  0  0  0  0  0  0  0  0
    2.1667    1.3875    0.0000 N   0  0  0  0  0  0  0  0  0  0  0  0
    3.3500    1.5458    0.0000 C   0  0  0  0  0  0  0  0  0  0  0  0
    4.0750    1.3458    0.0000 C   0  0  0  0  0  0  0  0  0  0  0  0
    4.6042    1.8833    0.0000 C   0  0  0  0  0  0  0  0  0  0  0  0
    2.3917    0.3958    0.0000 O   0  0  0  0  0  0  0  0  0  0  0  0
    3.3917    0.5333    0.0000 O   0  0  0  0  0  0  0  0  0  0  0  0
    4.4125    2.6000    0.0000 C   0  0  0  0  0  0  0  0  0  0  0  0
    2.1667    2.1458    0.0000 C   0  0  0  0  0  0  0  0  0  0  0  0
    1.5167    1.0125    0.0000 C   0  0  0  0  0  0  0  0  0  0  0  0
    3.1542    2.2708    0.0000 C   0  0  0  0  0  0  0  0  0  0  0  0
    3.6875    2.7958    0.0000 C   0  0  0  0  0  0  0  0  0  0  0  0
    5.3292    1.6833    0.0000 C   0  0  0  0  0  0  0  0  0  0  0  0
    0.8667    1.3875    0.0000 C   0  0  0  0  0  0  0  0  0  0  0  0
    1.5167    2.5208    0.0000 C   0  0  0  0  0  0  0  0  0  0  0  0
    4.9417    3.1333    0.0000 O   0  0  0  0  0  0  0  0  0  0  0  0
    0.8667    2.1458    0.0000 C   0  0  0  0  0  0  0  0  0  0  0  0
    5.5250    0.9583    0.0000 C   0  0  0  0  0  0  0  0  0  0  0  0
    5.8542    2.2125    0.0000 C   0  0  0  0  0  0  0  0  0  0  0  0
    4.7417    3.8583    0.0000 C   0  0  0  0  0  0  0  0  0  0  0  0
    0.2167    2.5208    0.0000 C   0  0  0  0  0  0  0  0  0  0  0  0
  2  1  1  0  0  0  0
  3  1  1  0  0  0  0
  4  3  2  0  0  0  0
  5  4  1  0  0  0  0
  6  1  2  0  0  0  0
  7  1  2  0  0  0  0
  8 12  1  0  0  0  0
  8  5  2  0  0  0  0
  9  2  1  0  0  0  0
 10  2  1  0  0  0  0
 11  3  1  0  0  0  0
 12 11  2  0  0  0  0
 13  5  1  0  0  0  0
 14 10  1  0  0  0  0
 15  9  1  0  0  0  0
 15 17  1  0  0  0  0
 16  8  1  0  0  0  0
 17 14  1  0  0  0  0
 18 13  1  0  0  0  0
 19 13  1  0  0  0  0
 20 16  1  0  0  0  0
 21 17  1  0  0  0  0
M  END
>  <ID>
9066580

>  <Supplier>
ChemBridge

>  <clogP>
4.245000000000000e+000

>  <RB>
1

>  <tPSA>
4.661000000000000e+001

>  <Hacc>
4

>  <Hdon>
0

>  <LogSw>
-5.196999999999997e+000

>  <Group>
2

$$$$
5771905
 OpenBabel03312015312D

 25 27  0  0  0  0  0  0  0  0999 V2000
   -1.4625   -0.3542    0.0000 C   0  0  0  0  0  0  0  0  0  0  0  0
   -1.5000    0.4500    0.0000 C   0  0  0  0  0  0  0  0  0  0  0  0
   -0.6625   -0.7375    0.0000 C   0  0  0  0  0  0  0  0  0  0  0  0
   -2.0958   -0.7375    0.0000 C   0  0  3  0  0  0  0  0  0  0  0  0
   -1.3958   -1.9667    0.0000 C   0  0  0  0  0  0  0  0  0  0  0  0
   -0.6625   -1.5542    0.0000 N   0  0  0  0  0  0  0  0  0  0  0  0
   -2.1000   -1.5542    0.0000 N   0  0  0  0  0  0  0  0  0  0  0  0
   -0.8125    0.9000    0.0000 N   0  0  0  0  0  0  0  0  0  0  0  0
   -2.8000   -0.3167    0.0000 C   0  0  0  0  0  0  0  0  0  0  0  0
   -2.2458    0.8333    0.0000 O   0  0  0  0  0  0  0  0  0  0  0  0
   -1.3958   -2.8000    0.0000 O   0  0  0  0  0  0  0  0  0  0  0  0
   -3.5208   -0.7167    0.0000 C   0  0  0  0  0  0  0  0  0  0  0  0
   -2.7958    0.5000    0.0000 C   0  0  0  0  0  0  0  0  0  0  0  0
   -0.0625    1.3625    0.0000 C   0  0  0  0  0  0  0  0  0  0  0  0
   -4.2208    0.5208    0.0000 C   0  0  0  0  0  0  0  0  0  0  0  0
    0.0292   -0.3000    0.0000 C   0  0  0  0  0  0  0  0  0  0  0  0
    1.4375    2.2708    0.0000 C   0  0  0  0  0  0  0  0  0  0  0  0
   -3.5000    0.9208    0.0000 C   0  0  0  0  0  0  0  0  0  0  0  0
   -4.2333   -0.3000    0.0000 C   0  0  0  0  0  0  0  0  0  0  0  0
   -4.9333    0.9458    0.0000 F   0  0  0  0  0  0  0  0  0  0  0  0
    2.1875    2.7333    0.0000 Br  0  0  0  0  0  0  0  0  0  0  0  0
    0.7042    0.9458    0.0000 C   0  0  0  0  0  0  0  0  0  0  0  0
   -0.0833    2.2458    0.0000 C   0  0  0  0  0  0  0  0  0  0  0  0
    1.4542    1.3958    0.0000 C   0  0  0  0  0  0  0  0  0  0  0  0
    0.6542    2.7083    0.0000 C   0  0  0  0  0  0  0  0  0  0  0  0
  2  1  1  0  0  0  0
  3  1  2  0  0  0  0
  4  1  1  0  0  0  0
  5  7  1  0  0  0  0
  5  6  1  0  0  0  0
  6  3  1  0  0  0  0
  7  4  1  0  0  0  0
  8  2  1  0  0  0  0
  9  4  1  0  0  0  0
 10  2  2  0  0  0  0
 11  5  2  0  0  0  0
 12  9  1  0  0  0  0
 13  9  2  0  0  0  0
 14  8  1  0  0  0  0
 15 18  2  0  0  0  0
 15 19  1  0  0  0  0
 16  3  1  0  0  0  0
 17 25  1  0  0  0  0
 17 24  2  0  0  0  0
 18 13  1  0  0  0  0
 19 12  2  0  0  0  0
 20 15  1  0  0  0  0
 21 17  1  0  0  0  0
 22 14  2  0  0  0  0
 23 14  1  0  0  0  0
 24 22  1  0  0  0  0
 25 23  2  0  0  0  0
M  END
>  <ID>
5771905

>  <Supplier>
ChemBridge

>  <clogP>
5.300000000000000e+000

>  <RB>
3

>  <tPSA>
7.022999999999998e+001

>  <Hacc>
2

>  <Hdon>
3

>  <LogSw>
-6.673000000000000e+000

>  <Group>
2

>  <Core>
073

$$$$
6968477
 OpenBabel03312015312D

 27 30  0  0  0  0  0  0  0  0999 V2000
    4.8125   -3.9417    0.0000 C   0  0  0  0  0  0  0  0  0  0  0  0
    5.2125   -3.2292    0.0000 C   0  0  0  0  0  0  0  0  0  0  0  0
    6.0417   -3.2167    0.0000 N   0  0  0  0  0  0  0  0  0  0  0  0
    5.2375   -4.6667    0.0000 C   0  0  0  0  0  0  0  0  0  0  0  0
    4.0000   -4.1292    0.0000 C   0  0  0  0  0  0  0  0  0  0  0  0
    6.0542   -4.6542    0.0000 N   0  0  0  0  0  0  0  0  0  0  0  0
    6.4625   -3.9292    0.0000 C   0  0  0  0  0  0  0  0  0  0  0  0
    4.6875   -5.2792    0.0000 S   0  0  0  0  0  0  0  0  0  0  0  0
    3.9250   -4.9542    0.0000 C   0  0  0  0  0  0  0  0  0  0  0  0
    7.2750   -2.4917    0.0000 C   0  0  0  0  0  0  0  0  0  0  0  0
    6.4500   -2.4917    0.0000 C   0  0  0  0  0  0  0  0  0  0  0  0
    3.3292   -3.6542    0.0000 C   0  0  0  0  0  0  0  0  0  0  0  0
    4.7875   -2.5167    0.0000 O   0  0  0  0  0  0  0  0  0  0  0  0
    7.6917   -3.2042    0.0000 O   0  0  0  0  0  0  0  0  0  0  0  0
    7.6792   -1.7667    0.0000 O   0  0  0  0  0  0  0  0  0  0  0  0
    2.5917   -4.0042    0.0000 C   0  0  0  0  0  0  0  0  0  0  0  0
    3.4042   -2.8417    0.0000 C   0  0  0  0  0  0  0  0  0  0  0  0
    1.9917   -2.7167    0.0000 C   0  0  0  0  0  0  0  0  0  0  0  0
    1.9167   -3.5417    0.0000 C   0  0  0  0  0  0  0  0  0  0  0  0
    2.7375   -2.3667    0.0000 C   0  0  0  0  0  0  0  0  0  0  0  0
    1.3125   -2.2417    0.0000 Br  0  0  0  0  0  0  0  0  0  0  0  0
    8.5167   -3.1917    0.0000 C   0  0  0  0  0  0  0  0  0  0  0  0
    8.9292   -3.9042    0.0000 C   0  0  0  0  0  0  0  0  0  0  0  0
    8.9167   -2.4792    0.0000 C   0  0  0  0  0  0  0  0  0  0  0  0
    9.7417   -2.4667    0.0000 C   0  0  0  0  0  0  0  0  0  0  0  0
    9.7542   -3.9042    0.0000 C   0  0  0  0  0  0  0  0  0  0  0  0
   10.1625   -3.1792    0.0000 C   0  0  0  0  0  0  0  0  0  0  0  0
  2  1  1  0  0  0  0
  3  2  1  0  0  0  0
  3  7  1  0  0  0  0
  4  1  2  0  0  0  0
  5  1  1  0  0  0  0
  6  4  1  0  0  0  0
  7  6  2  0  0  0  0
  8  4  1  0  0  0  0
  9  5  2  0  0  0  0
  9  8  1  0  0  0  0
 10 11  1  0  0  0  0
 11  3  1  0  0  0  0
 12  5  1  0  0  0  0
 13  2  2  0  0  0  0
 14 10  1  0  0  0  0
 15 10  2  0  0  0  0
 16 12  1  0  0  0  0
 17 12  2  0  0  0  0
 18 20  2  0  0  0  0
 18 19  1  0  0  0  0
 19 16  2  0  0  0  0
 20 17  1  0  0  0  0
 21 18  1  0  0  0  0
 22 14  1  0  0  0  0
 23 22  1  0  0  0  0
 24 22  1  0  0  0  0
 25 24  1  0  0  0  0
 26 23  1  0  0  0  0
 26 27  1  0  0  0  0
 27 25  1  0  0  0  0
M  END
>  <ID>
6968477

>  <Supplier>
ChemBridge

>  <clogP>
5.280000000000000e+000

>  <RB>
5

>  <tPSA>
6.119000000000000e+001

>  <Hacc>
4

>  <Hdon>
0

>  <LogSw>
-6.970000000000002e+000

>  <Group>
2

>  <Core>
062

$$$$
9066588
 OpenBabel03312015312D

 20 21  0  0  0  0  0  0  0  0999 V2000
    7.0167    1.5000    0.0000 S   0  0  0  0  0  0  0  0  0  0  0  0
    6.3667    1.1250    0.0000 C   0  0  0  0  0  0  0  0  0  0  0  0
    5.7167    1.5000    0.0000 C   0  0  0  0  0  0  0  0  0  0  0  0
    6.3667    0.3750    0.0000 C   0  0  0  0  0  0  0  0  0  0  0  0
    5.0667    1.1250    0.0000 C   0  0  0  0  0  0  0  0  0  0  0  0
    7.5917    1.9833    0.0000 O   0  0  0  0  0  0  0  0  0  0  0  0
    6.5875    2.1208    0.0000 O   0  0  0  0  0  0  0  0  0  0  0  0
    7.5500    0.9708    0.0000 N   0  0  0  0  0  0  0  0  0  0  0  0
    9.5292    0.8333    0.0000 N   0  0  0  0  0  0  0  0  0  0  0  0
   10.9792    1.2208    0.0000 O   0  0  0  0  0  0  0  0  0  0  0  0
    8.2750    1.1708    0.0000 C   0  0  0  0  0  0  0  0  0  0  0  0
    5.0667    0.3750    0.0000 C   0  0  0  0  0  0  0  0  0  0  0  0
    5.7167    2.2500    0.0000 Cl  0  0  0  0  0  0  0  0  0  0  0  0
    5.7167    0.0000    0.0000 C   0  0  0  0  0  0  0  0  0  0  0  0
    4.4167    0.0000    0.0000 Cl  0  0  0  0  0  0  0  0  0  0  0  0
    8.8042    0.6333    0.0000 C   0  0  0  0  0  0  0  0  0  0  0  0
    9.7167    1.5583    0.0000 C   0  0  0  0  0  0  0  0  0  0  0  0
   10.0542    0.3000    0.0000 C   0  0  0  0  0  0  0  0  0  0  0  0
   10.7792    0.4958    0.0000 C   0  0  0  0  0  0  0  0  0  0  0  0
   10.4417    1.7458    0.0000 C   0  0  0  0  0  0  0  0  0  0  0  0
  2  1  1  0  0  0  0
  3  2  1  0  0  0  0
  4  2  2  0  0  0  0
  5  3  2  0  0  0  0
  6  1  2  0  0  0  0
  7  1  2  0  0  0  0
  8  1  1  0  0  0  0
  9 16  1  0  0  0  0
 10 19  1  0  0  0  0
 11  8  1  0  0  0  0
 12 14  2  0  0  0  0
 12  5  1  0  0  0  0
 13  3  1  0  0  0  0
 14  4  1  0  0  0  0
 15 12  1  0  0  0  0
 16 11  1  0  0  0  0
 17  9  1  0  0  0  0
 18  9  1  0  0  0  0
 19 18  1  0  0  0  0
 20 17  1  0  0  0  0
 20 10  1  0  0  0  0
M  END
>  <ID>
9066588

>  <Supplier>
ChemBridge

>  <clogP>
2.837000000000000e+000

>  <RB>
4

>  <tPSA>
5.863999999999997e+001

>  <Hacc>
5

>  <Hdon>
1

>  <LogSw>
-1.892000000000000e+000

>  <Group>
2

$$$$
6755519
 OpenBabel03312015312D

 19 20  0  0  0  0  0  0  0  0999 V2000
    6.9542   -1.6292    0.0000 C   0  0  0  0  0  0  0  0  0  0  0  0
    6.2417   -2.0417    0.0000 C   0  0  0  0  0  0  0  0  0  0  0  0
    6.9500   -0.8042    0.0000 O   0  0  0  0  0  0  0  0  0  0  0  0
    6.2292   -0.3917    0.0000 C   0  0  0  0  0  0  0  0  0  0  0  0
    6.2292    0.4333    0.0000 C   0  0  0  0  0  0  0  0  0  0  0  0
    6.2417   -2.8750    0.0000 C   0  0  0  0  0  0  0  0  0  0  0  0
    7.6667   -2.0375    0.0000 O   0  0  0  0  0  0  0  0  0  0  0  0
    5.5042    0.8458    0.0000 C   0  0  0  0  0  0  0  0  0  0  0  0
    5.5167   -0.8042    0.0000 C   0  0  0  0  0  0  0  0  0  0  0  0
    4.0750    1.6583    0.0000 O   0  0  0  0  0  0  0  0  0  0  0  0
    4.8000    0.4250    0.0000 C   0  0  0  0  0  0  0  0  0  0  0  0
    6.9417    0.8500    0.0000 Br  0  0  0  0  0  0  0  0  0  0  0  0
    4.0792    0.8333    0.0000 C   0  0  0  0  0  0  0  0  0  0  0  0
    6.9542   -3.2875    0.0000 Cl  0  0  0  0  0  0  0  0  0  0  0  0
    4.8042   -0.3917    0.0000 C   0  0  0  0  0  0  0  0  0  0  0  0
    5.5250   -1.6292    0.0000 C   0  0  0  0  0  0  0  0  0  0  0  0
    5.5250   -3.2875    0.0000 C   0  0  0  0  0  0  0  0  0  0  0  0
    4.8125   -2.0500    0.0000 C   0  0  0  0  0  0  0  0  0  0  0  0
    4.8125   -2.8750    0.0000 C   0  0  0  0  0  0  0  0  0  0  0  0
  2  1  1  0  0  0  0
  3  1  1  0  0  0  0
  4  3  1  0  0  0  0
  5  4  2  0  0  0  0
  6  2  1  0  0  0  0
  7  1  2  0  0  0  0
  8  5  1  0  0  0  0
  9  4  1  0  0  0  0
 10 13  2  0  0  0  0
 11 15  1  0  0  0  0
 11  8  2  0  0  0  0
 12  5  1  0  0  0  0
 13 11  1  0  0  0  0
 14  6  1  0  0  0  0
 15  9  2  0  0  0  0
 16  2  2  0  0  0  0
 17  6  2  0  0  0  0
 18 16  1  0  0  0  0
 19 18  2  0  0  0  0
 19 17  1  0  0  0  0
M  END
>  <ID>
6755519

>  <Supplier>
ChemBridge

>  <clogP>
4.280000000000000e+000

>  <RB>
4

>  <tPSA>
4.337000000000000e+001

>  <Hacc>
3

>  <Hdon>
0

>  <LogSw>
-5.331000000000000e+000

>  <Group>
1

>  <Core>
266

$$$$
6968472
 OpenBabel03312015312D

 21 22  0  0  0  0  0  0  0  0999 V2000
   13.5792    9.2500    0.0000 N   0  3  0  0  0  0  0  0  0  0  0  0
   -1.3333    0.6125    0.0000 C   0  0  0  0  0  0  0  0  0  0  0  0
   -1.2625    3.4958    0.0000 C   0  0  0  0  0  0  0  0  0  0  0  0
   11.0375    7.8542    0.0000 C   0  0  0  0  0  0  0  0  0  0  0  0
   16.0000    7.7542    0.0000 O   0  5  0  0  0  0  0  0  0  0  0  0
    1.1375   -0.7667    0.0000 C   0  0  0  0  0  0  0  0  0  0  0  0
   13.6375   12.1292    0.0000 O   0  0  0  0  0  0  0  0  0  0  0  0
    3.6792    0.7125    0.0000 O   0  0  0  0  0  0  0  0  0  0  0  0
    1.2542    4.8792    0.0000 O   0  0  0  0  0  0  0  0  0  0  0  0
   11.0375    4.9792    0.0000 C   0  0  0  0  0  0  0  0  0  0  0  0
    8.5042    9.2500    0.0000 C   0  0  0  0  0  0  0  0  0  0  0  0
    3.6792    3.5958    0.0000 C   0  0  0  0  0  0  0  0  0  0  0  0
   -3.6833    4.9792    0.0000 O   0  0  0  0  0  0  0  0  0  0  0  0
    6.0875    4.9792    0.0000 C   0  0  0  0  0  0  0  0  0  0  0  0
    8.5667    3.5958    0.0000 C   0  0  0  0  0  0  0  0  0  0  0  0
    6.0875    7.8542    0.0000 C   0  0  0  0  0  0  0  0  0  0  0  0
   -3.8000   -0.7667    0.0000 C   0  0  0  0  0  0  0  0  0  0  0  0
    1.1375   -3.6500    0.0000 C   0  0  0  0  0  0  0  0  0  0  0  0
   -6.1500    3.5958    0.0000 C   0  0  0  0  0  0  0  0  0  0  0  0
   -3.8000   -3.6500    0.0000 C   0  0  0  0  0  0  0  0  0  0  0  0
   -1.3333   -5.0375    0.0000 C   0  0  0  0  0  0  0  0  0  0  0  0
  2  6  1  0  0  0  0
  3  2  1  0  0  0  0
  4  1  1  0  0  0  0
  5  1  1  0  0  0  0
  6  8  1  0  0  0  0
  7  1  2  0  0  0  0
  8 12  1  0  0  0  0
  9  3  2  0  0  0  0
 10  4  1  0  0  0  0
 11  4  2  0  0  0  0
 12 14  1  0  0  0  0
 13  3  1  0  0  0  0
 14 16  2  0  0  0  0
 14 15  1  0  0  0  0
 15 10  2  0  0  0  0
 16 11  1  0  0  0  0
 17  2  2  0  0  0  0
 17 20  1  0  0  0  0
 18  6  2  0  0  0  0
 19 13  1  0  0  0  0
 20 21  2  0  0  0  0
 21 18  1  0  0  0  0
M  CHG  2   1   1   5  -1
M  END
>  <ID>
6968472

>  <Supplier>
ChemBridge

>  <clogP>
3.550000000000000e+000

>  <RB>
4

>  <tPSA>
7.866999999999999e+001

>  <Hacc>
5

>  <Hdon>
0

>  <LogSw>
-4.717000000000000e+000

>  <Group>
2

$$$$
5675268
 OpenBabel03312015312D

 27 29  0  0  0  0  0  0  0  0999 V2000
    0.4167   -0.3167    0.0000 C   0  0  0  0  0  0  0  0  0  0  0  0
    0.0000   -0.9375    0.0000 C   0  0  0  0  0  0  0  0  0  0  0  0
    1.1667   -0.4042    0.0000 N   0  0  0  0  0  0  0  0  0  0  0  0
    2.6542   -0.5542    0.0000 N   0  0  0  0  0  0  0  0  0  0  0  0
   -0.7500   -0.9375    0.0000 C   0  0  0  0  0  0  0  0  0  0  0  0
    5.6500   -0.8667    0.0000 N   0  3  0  0  0  0  0  0  0  0  0  0
   -0.9833   -1.6500    0.0000 N   0  0  0  0  0  0  0  0  0  0  0  0
    0.2167   -1.6500    0.0000 N   0  0  0  0  0  0  0  0  0  0  0  0
   -0.3833   -2.0875    0.0000 O   0  0  0  0  0  0  0  0  0  0  0  0
    1.6042    0.1958    0.0000 C   0  0  3  0  0  0  0  0  0  0  0  0
    1.4792   -1.0875    0.0000 C   0  0  3  0  0  0  0  0  0  0  0  0
    3.4042   -0.6375    0.0000 C   0  0  0  0  0  0  0  0  0  0  0  0
    2.3542    0.1208    0.0000 C   0  0  0  0  0  0  0  0  0  0  0  0
    2.2167   -1.1667    0.0000 C   0  0  0  0  0  0  0  0  0  0  0  0
    4.9000   -0.8000    0.0000 C   0  0  0  0  0  0  0  0  0  0  0  0
    3.7167   -1.3167    0.0000 C   0  0  0  0  0  0  0  0  0  0  0  0
    4.4542   -1.4000    0.0000 C   0  0  0  0  0  0  0  0  0  0  0  0
    0.1167    0.3500    0.0000 N   0  0  0  0  0  0  0  0  0  0  0  0
    3.8500   -0.0292    0.0000 C   0  0  0  0  0  0  0  0  0  0  0  0
    5.9542   -1.5542    0.0000 O   0  5  0  0  0  0  0  0  0  0  0  0
    6.0875   -0.2667    0.0000 O   0  0  0  0  0  0  0  0  0  0  0  0
    4.6000   -0.1042    0.0000 C   0  0  0  0  0  0  0  0  0  0  0  0
   -1.1958   -0.3167    0.0000 N   0  0  0  0  0  0  0  0  0  0  0  0
    3.2667   -1.9292    0.0000 Cl  0  0  0  0  0  0  0  0  0  0  0  0
    0.5542    0.9500    0.0000 O   0  0  0  0  0  0  0  0  0  0  0  0
    1.0375   -1.7000    0.0000 C   0  0  0  0  0  0  0  0  0  0  0  0
    1.3042    0.8833    0.0000 C   0  0  0  0  0  0  0  0  0  0  0  0
  2  1  1  0  0  0  0
  3  1  1  0  0  0  0
  4 14  1  0  0  0  0
  4 13  1  0  0  0  0
  5  2  1  0  0  0  0
  6 15  1  0  0  0  0
  7  5  2  0  0  0  0
  7  9  1  0  0  0  0
  8  2  2  0  0  0  0
  9  8  1  0  0  0  0
 10  3  1  0  0  0  0
 11  3  1  0  0  0  0
 12  4  1  0  0  0  0
 13 10  1  0  0  0  0
 14 11  1  0  0  0  0
 15 22  2  0  0  0  0
 16 12  1  0  0  0  0
 17 16  2  0  0  0  0
 17 15  1  0  0  0  0
 18  1  2  0  0  0  0
 19 12  2  0  0  0  0
 20  6  1  0  0  0  0
 21  6  2  0  0  0  0
 22 19  1  0  0  0  0
 23  5  1  0  0  0  0
 24 16  1  0  0  0  0
 25 18  1  0  0  0  0
 26 11  1  0  0  0  0
 27 10  1  0  0  0  0
M  CHG  2   6   1  20  -1
M  END
>  <ID>
5675268

>  <Supplier>
ChemBridge

>  <clogP>
4.050000000000000e+000

>  <RB>
3

>  <tPSA>
1.471500000000000e+002

>  <Hacc>
7

>  <Hdon>
1

>  <LogSw>
-5.934000000000000e+000

>  <Group>
3

>  <Core>
368

$$$$
5422503
 OpenBabel03312015312D

 21 22  0  0  0  0  0  0  0  0999 V2000
    0.0542    1.7458    0.0000 C   0  0  0  0  0  0  0  0  0  0  0  0
   -0.6125    2.1333    0.0000 C   0  0  0  0  0  0  0  0  0  0  0  0
    0.7292    2.1125    0.0000 C   0  0  0  0  0  0  0  0  0  0  0  0
   -1.2708    1.8125    0.0000 C   0  0  0  0  0  0  0  0  0  0  0  0
    0.7292    2.9125    0.0000 C   0  0  0  0  0  0  0  0  0  0  0  0
   -1.9500    2.2083    0.0000 N   0  0  0  0  0  0  0  0  0  0  0  0
   -0.6125    2.8958    0.0000 C   0  0  0  0  0  0  0  0  0  0  0  0
    0.0542    3.3000    0.0000 C   0  0  0  0  0  0  0  0  0  0  0  0
   -2.6333    1.8125    0.0000 C   0  0  0  0  0  0  0  0  0  0  0  0
    1.4000    3.3000    0.0000 O   0  0  0  0  0  0  0  0  0  0  0  0
   -3.3208    2.2083    0.0000 C   0  0  0  0  0  0  0  0  0  0  0  0
    0.0542    0.9625    0.0000 C   0  0  0  0  0  0  0  0  0  0  0  0
    1.4000    1.7458    0.0000 C   0  0  0  0  0  0  0  0  0  0  0  0
   -1.9500    2.9958    0.0000 C   0  0  0  0  0  0  0  0  0  0  0  0
   -4.0000    1.8125    0.0000 C   0  0  0  0  0  0  0  0  0  0  0  0
   -3.3208    2.9958    0.0000 C   0  0  0  0  0  0  0  0  0  0  0  0
    1.4000    4.0792    0.0000 C   0  0  0  0  0  0  0  0  0  0  0  0
   -2.6333    3.3833    0.0000 C   0  0  0  0  0  0  0  0  0  0  0  0
   -4.0000    3.3958    0.0000 C   0  0  0  0  0  0  0  0  0  0  0  0
   -4.6833    2.2083    0.0000 C   0  0  0  0  0  0  0  0  0  0  0  0
   -4.6833    2.9958    0.0000 C   0  0  0  0  0  0  0  0  0  0  0  0
  2  1  1  0  0  0  0
  3  1  2  0  0  0  0
  4  2  1  0  0  0  0
  5  3  1  0  0  0  0
  6  4  1  0  0  0  0
  7  2  2  0  0  0  0
  7  8  1  0  0  0  0
  8  5  2  0  0  0  0
  9  6  1  0  0  0  0
 10  5  1  0  0  0  0
 11  9  1  0  0  0  0
 12  1  1  0  0  0  0
 13  3  1  0  0  0  0
 14  6  1  0  0  0  0
 15 11  1  0  0  0  0
 16 11  2  0  0  0  0
 17 10  1  0  0  0  0
 18 14  1  0  0  0  0
 19 16  1  0  0  0  0
 20 15  2  0  0  0  0
 20 21  1  0  0  0  0
 21 19  2  0  0  0  0
M  END
>  <ID>
5422503

>  <Supplier>
ChemBridge

>  <clogP>
4.700000000000000e+000

>  <RB>
4

>  <tPSA>
1.247000000000000e+001

>  <Hacc>
2

>  <Hdon>
0

>  <LogSw>
-4.273000000000002e+000

>  <Group>
3

$$$$
9115287
 OpenBabel03312015312D

 20 21  0  0  0  0  0  0  0  0999 V2000
    3.1417    2.7333    0.0000 C   0  0  0  0  0  0  0  0  0  0  0  0
    5.0917    2.3583    0.0000 C   0  0  0  0  0  0  0  0  0  0  0  0
    3.7917    2.3583    0.0000 N   0  0  0  0  0  0  0  0  0  0  0  0
    4.4417    2.7333    0.0000 C   0  0  0  0  0  0  0  0  0  0  0  0
    5.0917    1.6083    0.0000 C   0  0  0  0  0  0  0  0  0  0  0  0
    2.4917    2.3583    0.0000 C   0  0  0  0  0  0  0  0  0  0  0  0
    3.1417    3.4833    0.0000 O   0  0  0  0  0  0  0  0  0  0  0  0
    5.7417    1.2333    0.0000 O   0  0  0  0  0  0  0  0  0  0  0  0
    1.1917    2.3583    0.0000 N   0  0  0  0  0  0  0  0  0  0  0  0
    4.4417    1.2333    0.0000 O   0  0  0  0  0  0  0  0  0  0  0  0
    1.8417    2.7333    0.0000 C   0  0  0  0  0  0  0  0  0  0  0  0
    5.7417    2.7333    0.0000 C   0  0  0  0  0  0  0  0  0  0  0  0
    3.7917    1.6083    0.0000 C   0  0  0  0  0  0  0  0  0  0  0  0
    4.4417    3.4833    0.0000 C   0  0  0  0  0  0  0  0  0  0  0  0
    2.4917    1.6083    0.0000 C   0  0  0  0  0  0  0  0  0  0  0  0
    1.1917    1.6083    0.0000 C   0  0  0  0  0  0  0  0  0  0  0  0
    3.1417    1.2333    0.0000 C   0  0  0  0  0  0  0  0  0  0  0  0
    1.8417    1.2333    0.0000 C   0  0  0  0  0  0  0  0  0  0  0  0
    5.7417    3.4833    0.0000 C   0  0  0  0  0  0  0  0  0  0  0  0
    5.0917    3.8583    0.0000 C   0  0  0  0  0  0  0  0  0  0  0  0
  2  4  2  0  0  0  0
  3  1  1  0  0  0  0
  4  3  1  0  0  0  0
  5  2  1  0  0  0  0
  6  1  1  0  0  0  0
  7  1  2  0  0  0  0
  8  5  2  0  0  0  0
  9 11  1  0  0  0  0
 10  5  1  0  0  0  0
 11  6  2  0  0  0  0
 12  2  1  0  0  0  0
 13  3  1  0  0  0  0
 14  4  1  0  0  0  0
 15  6  1  0  0  0  0
 16 18  1  0  0  0  0
 16  9  2  0  0  0  0
 17 13  1  0  0  0  0
 18 15  2  0  0  0  0
 19 20  1  0  0  0  0
 19 12  2  0  0  0  0
 20 14  2  0  0  0  0
M  END
>  <ID>
9115287

>  <Supplier>
ChemBridge

>  <clogP>
3.053000000000000e+000

>  <RB>
3

>  <tPSA>
7.050000000000000e+001

>  <Hacc>
4

>  <Hdon>
1

>  <LogSw>
-3.496000000000000e+000

>  <Group>
2

>  <Core>
144

$$$$
5212488
 OpenBabel03312015312D

 19 21  0  0  0  0  0  0  0  0999 V2000
    0.5042    0.0000    0.0000 C   0  0  0  0  0  0  0  0  0  0  0  0
    0.5042   -0.4542    0.0000 C   0  0  0  0  0  0  0  0  0  0  0  0
    0.0875    0.2458    0.0000 C   0  0  0  0  0  0  0  0  0  0  0  0
    0.9042    0.2458    0.0000 C   0  0  0  0  0  0  0  0  0  0  0  0
    0.0875   -0.7000    0.0000 C   0  0  0  0  0  0  0  0  0  0  0  0
   -0.3208    0.0000    0.0000 C   0  0  0  0  0  0  0  0  0  0  0  0
    1.3292    0.0000    0.0000 C   0  0  0  0  0  0  0  0  0  0  0  0
   -0.3208   -0.4542    0.0000 C   0  0  0  0  0  0  0  0  0  0  0  0
    0.9042   -0.7000    0.0000 C   0  0  0  0  0  0  0  0  0  0  0  0
    1.3292   -0.4542    0.0000 C   0  0  0  0  0  0  0  0  0  0  0  0
    0.0875    0.8125    0.0000 O   0  0  0  0  0  0  0  0  0  0  0  0
    0.0792   -1.1542    0.0000 O   0  0  0  0  0  0  0  0  0  0  0  0
    0.9000    0.8000    0.0000 Cl  0  0  0  0  0  0  0  0  0  0  0  0
    1.7500    0.3125    0.0000 N   0  0  0  0  0  0  0  0  0  0  0  0
    1.8500   -0.8042    0.0000 Cl  0  0  0  0  0  0  0  0  0  0  0  0
   -0.7333    0.2458    0.0000 C   0  0  0  0  0  0  0  0  0  0  0  0
   -0.7333   -0.7000    0.0000 C   0  0  0  0  0  0  0  0  0  0  0  0
   -1.1500    0.0000    0.0000 C   0  0  0  0  0  0  0  0  0  0  0  0
   -1.1500   -0.4542    0.0000 C   0  0  0  0  0  0  0  0  0  0  0  0
  2  1  2  0  0  0  0
  3  1  1  0  0  0  0
  4  1  1  0  0  0  0
  5  2  1  0  0  0  0
  6  3  1  0  0  0  0
  7  4  2  0  0  0  0
  8  6  2  0  0  0  0
  8  5  1  0  0  0  0
  9  2  1  0  0  0  0
  9 10  2  0  0  0  0
 10  7  1  0  0  0  0
 11  3  2  0  0  0  0
 12  5  2  0  0  0  0
 13  4  1  0  0  0  0
 14  7  1  0  0  0  0
 15 10  1  0  0  0  0
 16  6  1  0  0  0  0
 17  8  1  0  0  0  0
 17 19  2  0  0  0  0
 18 16  2  0  0  0  0
 19 18  1  0  0  0  0
M  END
>  <ID>
5212488

>  <Supplier>
ChemBridge

>  <clogP>
3.300000000000000e+000

>  <RB>
0

>  <tPSA>
6.016000000000000e+001

>  <Hacc>
2

>  <Hdon>
1

>  <LogSw>
-5.259000000000000e+000

>  <Group>
3

$$$$
9115281
 OpenBabel03312015312D

 26 28  0  0  0  0  0  0  0  0999 V2000
    4.6125    2.1875    0.0000 C   0  0  0  0  0  0  0  0  0  0  0  0
    3.9667    2.5625    0.0000 N   0  0  0  0  0  0  0  0  0  0  0  0
    2.6667    2.5625    0.0000 C   0  0  0  0  0  0  0  0  0  0  0  0
    2.0167    2.1875    0.0000 C   0  0  0  0  0  0  0  0  0  0  0  0
    7.8625    3.3125    0.0000 N   0  0  0  0  0  0  0  0  0  0  0  0
    5.2625    2.5625    0.0000 C   0  0  0  0  0  0  0  0  0  0  0  0
    3.3167    2.1875    0.0000 C   0  0  0  0  0  0  0  0  0  0  0  0
    2.0167    1.4375    0.0000 C   0  0  0  0  0  0  0  0  0  0  0  0
    4.6125    1.4375    0.0000 O   0  0  0  0  0  0  0  0  0  0  0  0
    7.2125    3.6875    0.0000 C   0  0  0  0  0  0  0  0  0  0  0  0
    5.9125    2.1875    0.0000 C   0  0  0  0  0  0  0  0  0  0  0  0
    5.2625    3.3125    0.0000 C   0  0  0  0  0  0  0  0  0  0  0  0
    2.6667    1.0625    0.0000 C   0  0  0  0  0  0  0  0  0  0  0  0
    6.5625    3.3125    0.0000 C   0  0  0  0  0  0  0  0  0  0  0  0
    3.3167    1.4375    0.0000 C   0  0  0  0  0  0  0  0  0  0  0  0
    1.3667    2.5625    0.0000 O   0  0  0  0  0  0  0  0  0  0  0  0
    5.9125    3.6875    0.0000 C   0  0  0  0  0  0  0  0  0  0  0  0
    6.5625    2.5625    0.0000 C   0  0  0  0  0  0  0  0  0  0  0  0
    1.3667    1.0625    0.0000 O   0  0  0  0  0  0  0  0  0  0  0  0
    7.8625    2.5625    0.0000 C   0  0  0  0  0  0  0  0  0  0  0  0
    8.5125    3.6875    0.0000 C   0  0  0  0  0  0  0  0  0  0  0  0
    1.3667    3.3125    0.0000 C   0  0  0  0  0  0  0  0  0  0  0  0
    1.3667    0.3125    0.0000 C   0  0  0  0  0  0  0  0  0  0  0  0
    9.1625    3.3125    0.0000 C   0  0  0  0  0  0  0  0  0  0  0  0
    8.5125    2.1875    0.0000 C   0  0  0  0  0  0  0  0  0  0  0  0
    9.1625    2.5625    0.0000 C   0  0  0  0  0  0  0  0  0  0  0  0
  2  1  1  0  0  0  0
  3  7  1  0  0  0  0
  4  3  2  0  0  0  0
  4  8  1  0  0  0  0
  5 10  1  0  0  0  0
  6  1  1  0  0  0  0
  7  2  1  0  0  0  0
  8 13  2  0  0  0  0
  9  1  2  0  0  0  0
 10 14  1  0  0  0  0
 11  6  1  0  0  0  0
 12  6  2  0  0  0  0
 13 15  1  0  0  0  0
 14 17  2  0  0  0  0
 14 18  1  0  0  0  0
 15  7  2  0  0  0  0
 16  4  1  0  0  0  0
 17 12  1  0  0  0  0
 18 11  2  0  0  0  0
 19  8  1  0  0  0  0
 20  5  1  0  0  0  0
 21  5  1  0  0  0  0
 22 16  1  0  0  0  0
 23 19  1  0  0  0  0
 24 21  1  0  0  0  0
 25 20  1  0  0  0  0
 26 24  1  0  0  0  0
 26 25  1  0  0  0  0
M  END
>  <ID>
9115281

>  <Supplier>
ChemBridge

>  <clogP>
3.427000000000000e+000

>  <RB>
4

>  <tPSA>
5.080000000000000e+001

>  <Hacc>
4

>  <Hdon>
1

>  <LogSw>
-4.739000000000003e+000

>  <Group>
2

>  <Core>
321

$$$$
9115280
 OpenBabel03312015312D

 23 25  0  0  0  0  0  0  0  0999 V2000
    6.5667    1.3833    0.0000 O   0  0  0  0  0  0  0  0  0  0  0  0
    2.6667    0.8958    0.0000 C   0  0  0  0  0  0  0  0  0  0  0  0
    7.0125    1.9833    0.0000 C   0  0  0  0  0  0  0  0  0  0  0  0
    6.5667    2.5958    0.0000 N   0  0  0  0  0  0  0  0  0  0  0  0
    5.8542    1.6083    0.0000 C   0  0  0  0  0  0  0  0  0  0  0  0
    5.8542    2.3583    0.0000 N   0  0  0  0  0  0  0  0  0  0  0  0
    1.9542    1.1333    0.0000 N   0  0  0  0  0  0  0  0  0  0  0  0
    3.2750    1.3375    0.0000 N   0  0  0  0  0  0  0  0  0  0  0  0
    2.6667    0.1458    0.0000 S   0  0  0  0  0  0  0  0  0  0  0  0
    1.5125    0.5208    0.0000 C   0  0  0  0  0  0  0  0  0  0  0  0
    3.9542    1.0333    0.0000 C   0  0  0  0  0  0  0  0  0  0  0  0
    7.7625    1.9833    0.0000 C   0  0  0  0  0  0  0  0  0  0  0  0
    1.9542   -0.0792    0.0000 C   0  0  0  0  0  0  0  0  0  0  0  0
    5.2500    1.1708    0.0000 S   0  0  0  0  0  0  0  0  0  0  0  0
    8.1375    1.3375    0.0000 C   0  0  0  0  0  0  0  0  0  0  0  0
    4.0375    0.2875    0.0000 O   0  0  0  0  0  0  0  0  0  0  0  0
    4.5667    1.4750    0.0000 C   0  0  0  0  0  0  0  0  0  0  0  0
    8.8875    1.3375    0.0000 C   0  0  0  0  0  0  0  0  0  0  0  0
    9.2625    0.6875    0.0000 Cl  0  0  0  0  0  0  0  0  0  0  0  0
    8.1375    2.6333    0.0000 C   0  0  0  0  0  0  0  0  0  0  0  0
    8.8875    2.6333    0.0000 C   0  0  0  0  0  0  0  0  0  0  0  0
    0.7625    0.5208    0.0000 C   0  0  0  0  0  0  0  0  0  0  0  0
    9.2625    1.9833    0.0000 C   0  0  0  0  0  0  0  0  0  0  0  0
  2  8  1  0  0  0  0
  3  1  1  0  0  0  0
  4  3  2  0  0  0  0
  5  1  1  0  0  0  0
  6  5  2  0  0  0  0
  6  4  1  0  0  0  0
  7  2  2  0  0  0  0
  8 11  1  0  0  0  0
  9  2  1  0  0  0  0
 10  7  1  0  0  0  0
 10 13  2  0  0  0  0
 11 17  1  0  0  0  0
 12  3  1  0  0  0  0
 13  9  1  0  0  0  0
 14  5  1  0  0  0  0
 15 12  2  0  0  0  0
 16 11  2  0  0  0  0
 17 14  1  0  0  0  0
 18 15  1  0  0  0  0
 18 23  2  0  0  0  0
 19 18  1  0  0  0  0
 20 12  1  0  0  0  0
 21 20  2  0  0  0  0
 22 10  1  0  0  0  0
 23 21  1  0  0  0  0
M  END
>  <ID>
9115280

>  <Supplier>
ChemBridge

>  <clogP>
2.387000000000000e+000

>  <RB>
5

>  <tPSA>
8.091000000000000e+001

>  <Hacc>
5

>  <Hdon>
1

>  <LogSw>
-4.404000000000000e+000

>  <Group>
2

>  <Core>
013

$$$$
7667656
 OpenBabel03312015312D

 26 27  0  0  0  0  0  0  0  0999 V2000
    3.3417   -4.0792    0.0000 S   0  0  0  0  0  0  0  0  0  0  0  0
    2.6292   -4.4875    0.0000 N   0  0  0  0  0  0  0  0  0  0  0  0
    4.0625   -3.6667    0.0000 C   0  0  0  0  0  0  0  0  0  0  0  0
    3.7542   -4.7917    0.0000 O   0  0  0  0  0  0  0  0  0  0  0  0
    2.9417   -3.3625    0.0000 O   0  0  0  0  0  0  0  0  0  0  0  0
    7.6292   -2.4167    0.0000 C   0  0  0  0  0  0  0  0  0  0  0  0
    8.3500   -2.8250    0.0000 N   0  0  0  0  0  0  0  0  0  0  0  0
    7.6292   -1.5917    0.0000 O   0  0  0  0  0  0  0  0  0  0  0  0
    4.7750   -4.0792    0.0000 C   0  0  0  0  0  0  0  0  0  0  0  0
    4.0625   -2.8375    0.0000 C   0  0  0  0  0  0  0  0  0  0  0  0
    9.0500   -2.4042    0.0000 C   0  0  0  0  0  0  0  0  0  0  0  0
    6.9167   -2.8292    0.0000 C   0  0  0  0  0  0  0  0  0  0  0  0
    1.9167   -4.0667    0.0000 C   0  0  0  0  0  0  0  0  0  0  0  0
   10.4500   -1.5625    0.0000 C   0  0  0  0  0  0  0  0  0  0  0  0
    5.4917   -2.8375    0.0000 C   0  0  0  0  0  0  0  0  0  0  0  0
    4.7750   -2.4250    0.0000 C   0  0  0  0  0  0  0  0  0  0  0  0
    5.4917   -3.6667    0.0000 C   0  0  0  0  0  0  0  0  0  0  0  0
   11.1542   -1.1417    0.0000 Br  0  0  0  0  0  0  0  0  0  0  0  0
    6.2042   -2.4167    0.0000 C   0  0  0  0  0  0  0  0  0  0  0  0
    9.0292   -1.5875    0.0000 C   0  0  0  0  0  0  0  0  0  0  0  0
    9.7625   -2.8000    0.0000 C   0  0  0  0  0  0  0  0  0  0  0  0
   10.4542   -2.3792    0.0000 C   0  0  0  0  0  0  0  0  0  0  0  0
    9.7292   -1.1667    0.0000 C   0  0  0  0  0  0  0  0  0  0  0  0
    1.2000   -4.4667    0.0000 C   0  0  0  0  0  0  0  0  0  0  0  0
    0.4875   -4.0542    0.0000 C   0  0  0  0  0  0  0  0  0  0  0  0
    1.1917   -5.2917    0.0000 C   0  0  0  0  0  0  0  0  0  0  0  0
  2  1  1  0  0  0  0
  3  1  1  0  0  0  0
  4  1  2  0  0  0  0
  5  1  2  0  0  0  0
  6 12  1  0  0  0  0
  7  6  1  0  0  0  0
  8  6  2  0  0  0  0
  9  3  1  0  0  0  0
 10  3  2  0  0  0  0
 11  7  1  0  0  0  0
 12 19  1  0  0  0  0
 13  2  1  0  0  0  0
 14 22  2  0  0  0  0
 15 16  2  0  0  0  0
 15 17  1  0  0  0  0
 16 10  1  0  0  0  0
 17  9  2  0  0  0  0
 18 14  1  0  0  0  0
 19 15  1  0  0  0  0
 20 11  1  0  0  0  0
 21 11  2  0  0  0  0
 22 21  1  0  0  0  0
 23 20  2  0  0  0  0
 23 14  1  0  0  0  0
 24 13  1  0  0  0  0
 25 24  1  0  0  0  0
 26 24  1  0  0  0  0
M  END
>  <ID>
7667656

>  <Supplier>
ChemBridge

>  <clogP>
4.614999999999996e+000

>  <RB>
6

>  <tPSA>
7.527000000000000e+001

>  <Hacc>
4

>  <Hdon>
2

>  <LogSw>
-6.186999999999999e+000

>  <Group>
1

>  <Core>
484

$$$$
7667657
 OpenBabel03312015312D

 31 35  0  0  0  0  0  0  0  0999 V2000
    3.3500   -1.0250    0.0000 C   0  0  0  0  0  0  0  0  0  0  0  0
    4.1750   -1.0250    0.0000 C   0  0  0  0  0  0  0  0  0  0  0  0
    2.8625   -1.7000    0.0000 N   0  0  0  0  0  0  0  0  0  0  0  0
    4.5875   -0.3125    0.0000 C   0  0  0  0  0  0  0  0  0  0  0  0
    2.8667   -0.3542    0.0000 N   0  0  0  0  0  0  0  0  0  0  0  0
    5.4167   -0.3042    0.0000 C   0  0  0  0  0  0  0  0  0  0  0  0
    4.5875   -1.7417    0.0000 C   0  0  0  0  0  0  0  0  0  0  0  0
    2.0667   -1.4417    0.0000 C   0  0  0  0  0  0  0  0  0  0  0  0
    2.0667   -0.6125    0.0000 C   0  0  0  0  0  0  0  0  0  0  0  0
    5.8292   -1.0167    0.0000 C   0  0  0  0  0  0  0  0  0  0  0  0
    5.0000   -2.4500    0.0000 N   0  0  0  0  0  0  0  0  0  0  0  0
    5.8375    0.4125    0.0000 C   0  0  0  0  0  0  0  0  0  0  0  0
    5.4250    1.1333    0.0000 O   0  0  0  0  0  0  0  0  0  0  0  0
    6.6625   -1.0250    0.0000 C   0  0  0  0  0  0  0  0  0  0  0  0
    6.6667    0.4125    0.0000 C   0  0  0  0  0  0  0  0  0  0  0  0
    7.0750   -0.3042    0.0000 C   0  0  0  0  0  0  0  0  0  0  0  0
    5.8417    1.8583    0.0000 C   0  0  0  0  0  0  0  0  0  0  0  0
    6.6792    1.8500    0.0000 C   0  0  0  0  0  0  0  0  0  0  0  0
    5.4167   -1.7375    0.0000 C   0  0  0  0  0  0  0  0  0  0  0  0
    1.3542   -1.8542    0.0000 C   0  0  0  0  0  0  0  0  0  0  0  0
    1.3542   -0.2000    0.0000 C   0  0  0  0  0  0  0  0  0  0  0  0
    7.0750   -1.7417    0.0000 C   0  0  0  0  0  0  0  0  0  0  0  0
    7.0792    1.1208    0.0000 C   0  0  0  0  0  0  0  0  0  0  0  0
    7.0875    2.5708    0.0000 C   0  0  0  0  0  0  0  0  0  0  0  0
    5.8292   -2.4500    0.0000 C   0  0  0  0  0  0  0  0  0  0  0  0
    0.6417   -1.4417    0.0000 C   0  0  0  0  0  0  0  0  0  0  0  0
    0.6417   -0.6125    0.0000 C   0  0  0  0  0  0  0  0  0  0  0  0
    6.6542   -2.4542    0.0000 C   0  0  0  0  0  0  0  0  0  0  0  0
    7.9250    1.1208    0.0000 C   0  0  0  0  0  0  0  0  0  0  0  0
    7.9375    2.5625    0.0000 C   0  0  0  0  0  0  0  0  0  0  0  0
    8.3417    1.8333    0.0000 C   0  0  0  0  0  0  0  0  0  0  0  0
  2  1  1  0  0  0  0
  3  1  2  0  0  0  0
  4  2  2  0  0  0  0
  5  1  1  0  0  0  0
  6  4  1  0  0  0  0
  7  2  1  0  0  0  0
  8  3  1  0  0  0  0
  8  9  1  0  0  0  0
  9  5  1  0  0  0  0
 10  6  1  0  0  0  0
 11  7  3  0  0  0  0
 12  6  2  0  0  0  0
 13 12  1  0  0  0  0
 14 10  1  0  0  0  0
 15 12  1  0  0  0  0
 16 15  2  0  0  0  0
 16 14  1  0  0  0  0
 17 13  1  0  0  0  0
 18 17  1  0  0  0  0
 19 10  2  0  0  0  0
 20  8  2  0  0  0  0
 21  9  2  0  0  0  0
 22 14  2  0  0  0  0
 22 28  1  0  0  0  0
 23 18  2  0  0  0  0
 24 18  1  0  0  0  0
 25 19  1  0  0  0  0
 26 20  1  0  0  0  0
 26 27  2  0  0  0  0
 27 21  1  0  0  0  0
 28 25  2  0  0  0  0
 29 23  1  0  0  0  0
 30 24  2  0  0  0  0
 31 30  1  0  0  0  0
 31 29  2  0  0  0  0
M  END
>  <ID>
7667657

>  <Supplier>
ChemBridge

>  <clogP>
5.741000000000001e+000

>  <RB>
5

>  <tPSA>
6.170000000000000e+001

>  <Hacc>
3

>  <Hdon>
1

>  <LogSw>
-8.462000000000003e+000

>  <Group>
1

>  <Core>
112

$$$$
5675260
 OpenBabel03312015312D

 19 21  0  0  0  0  0  0  0  0999 V2000
   -0.8333    1.1833    0.0000 C   0  0  0  0  0  0  0  0  0  0  0  0
   -1.4958    1.7208    0.0000 S   0  0  0  0  0  0  0  0  0  0  0  0
   -2.1958    1.2625    0.0000 C   0  0  0  0  0  0  0  0  0  0  0  0
   -1.9708    0.4458    0.0000 N   0  0  0  0  0  0  0  0  0  0  0  0
    3.6292    2.7833    0.0000 N   0  0  0  0  0  0  0  0  0  0  0  0
   -1.1333    0.3833    0.0000 C   0  0  0  0  0  0  0  0  0  0  0  0
    2.7875    3.8458    0.0000 S   0  0  0  0  0  0  0  0  0  0  0  0
    0.0042    1.3208    0.0000 N   0  0  0  0  0  0  0  0  0  0  0  0
    3.5875    3.6458    0.0000 C   0  0  0  0  0  0  0  0  0  0  0  0
    2.3292    3.1458    0.0000 C   0  0  0  0  0  0  0  0  0  0  0  0
    2.8500    2.4833    0.0000 C   0  0  0  0  0  0  0  0  0  0  0  0
    0.3292    2.1000    0.0000 N   0  0  0  0  0  0  0  0  0  0  0  0
    1.4875    3.0208    0.0000 C   0  0  0  0  0  0  0  0  0  0  0  0
    1.1667    2.2458    0.0000 C   0  0  0  0  0  0  0  0  0  0  0  0
   -2.9958    1.5625    0.0000 N   0  0  0  0  0  0  0  0  0  0  0  0
    2.5500    1.7000    0.0000 C   0  0  0  0  0  0  0  0  0  0  0  0
    1.7042    1.5833    0.0000 C   0  0  0  0  0  0  0  0  0  0  0  0
   -0.6708   -0.3542    0.0000 C   0  0  0  0  0  0  0  0  0  0  0  0
    4.1875    3.9458    0.0000 C   0  0  0  0  0  0  0  0  0  0  0  0
  2  1  1  0  0  0  0
  3  2  1  0  0  0  0
  4  6  1  0  0  0  0
  4  3  2  0  0  0  0
  5 11  1  0  0  0  0
  6  1  2  0  0  0  0
  7 10  1  0  0  0  0
  8  1  1  0  0  0  0
  9  7  1  0  0  0  0
  9  5  2  0  0  0  0
 10 13  1  0  0  0  0
 11 16  1  0  0  0  0
 11 10  2  0  0  0  0
 12  8  2  0  0  0  0
 13 14  2  0  0  0  0
 14 12  1  0  0  0  0
 15  3  1  0  0  0  0
 16 17  2  0  0  0  0
 17 14  1  0  0  0  0
 18  6  1  0  0  0  0
 19  9  1  0  0  0  0
M  END
>  <ID>
5675260

>  <Supplier>
ChemBridge

>  <clogP>
3.030000000000000e+000

>  <RB>
2

>  <tPSA>
7.652000000000000e+001

>  <Hacc>
4

>  <Hdon>
1

>  <LogSw>
-4.330000000000000e+000

>  <Group>
3

>  <Core>
226

$$$$
5212482
 OpenBabel03312015312D

 25 27  0  0  0  0  0  0  0  0999 V2000
   -0.3708   -1.0875    0.0000 C   0  0  0  0  0  0  0  0  0  0  0  0
   -0.3708   -1.9292    0.0000 C   0  0  0  0  0  0  0  0  0  0  0  0
   -1.0958   -2.3292    0.0000 N   0  0  0  0  0  0  0  0  0  0  0  0
   -1.0958   -0.6875    0.0000 C   0  0  0  0  0  0  0  0  0  0  0  0
   -1.8125   -1.9292    0.0000 C   0  0  0  0  0  0  0  0  0  0  0  0
   -1.8125   -1.0875    0.0000 C   0  0  0  0  0  0  0  0  0  0  0  0
   -2.5333   -2.3292    0.0000 C   0  0  0  0  0  0  0  0  0  0  0  0
    0.3500   -0.6667    0.0000 C   0  0  0  0  0  0  0  0  0  0  0  0
    1.0667   -0.2292    0.0000 N   0  0  0  0  0  0  0  0  0  0  0  0
   -3.0500   -2.9667    0.0000 C   0  0  0  0  0  0  0  0  0  0  0  0
   -3.3500   -2.1875    0.0000 C   0  0  0  0  0  0  0  0  0  0  0  0
    0.3500   -2.3500    0.0000 S   0  0  0  0  0  0  0  0  0  0  0  0
   -1.0958    0.1333    0.0000 C   0  0  0  0  0  0  0  0  0  0  0  0
    1.7875   -2.3667    0.0000 C   0  0  0  0  0  0  0  0  0  0  0  0
    1.7667   -3.2042    0.0000 O   0  0  0  0  0  0  0  0  0  0  0  0
    1.0667   -1.9500    0.0000 C   0  0  0  0  0  0  0  0  0  0  0  0
   -1.8125    0.5500    0.0000 C   0  0  0  0  0  0  0  0  0  0  0  0
   -0.3708    0.5500    0.0000 C   0  0  0  0  0  0  0  0  0  0  0  0
   -1.0958    1.7958    0.0000 C   0  0  0  0  0  0  0  0  0  0  0  0
   -1.8125    1.3708    0.0000 C   0  0  0  0  0  0  0  0  0  0  0  0
   -0.3708    1.3958    0.0000 C   0  0  0  0  0  0  0  0  0  0  0  0
    2.5042   -1.9667    0.0000 O   0  0  0  0  0  0  0  0  0  0  0  0
   -1.0708    2.6333    0.0000 F   0  0  0  0  0  0  0  0  0  0  0  0
    3.2042   -2.4042    0.0000 C   0  0  0  0  0  0  0  0  0  0  0  0
    3.9292   -2.0042    0.0000 C   0  0  0  0  0  0  0  0  0  0  0  0
  2  1  1  0  0  0  0
  3  2  2  0  0  0  0
  4  1  2  0  0  0  0
  5  6  2  0  0  0  0
  5  3  1  0  0  0  0
  6  4  1  0  0  0  0
  7  5  1  0  0  0  0
  8  1  1  0  0  0  0
  9  8  3  0  0  0  0
 10  7  1  0  0  0  0
 11  7  1  0  0  0  0
 11 10  1  0  0  0  0
 12  2  1  0  0  0  0
 13  4  1  0  0  0  0
 14 16  1  0  0  0  0
 15 14  2  0  0  0  0
 16 12  1  0  0  0  0
 17 13  2  0  0  0  0
 18 13  1  0  0  0  0
 19 21  1  0  0  0  0
 20 17  1  0  0  0  0
 20 19  2  0  0  0  0
 21 18  2  0  0  0  0
 22 14  1  0  0  0  0
 23 19  1  0  0  0  0
 24 22  1  0  0  0  0
 25 24  1  0  0  0  0
M  END
>  <ID>
5212482

>  <Supplier>
ChemBridge

>  <clogP>
4.290000000000000e+000

>  <RB>
5

>  <tPSA>
6.298000000000000e+001

>  <Hacc>
4

>  <Hdon>
0

>  <LogSw>
-5.726999999999999e+000

>  <Group>
3

>  <Core>
042

$$$$
5212481
 OpenBabel03312015312D

 19 21  0  0  0  0  0  0  0  0999 V2000
   -0.3708   -1.0875    0.0000 C   0  0  0  0  0  0  0  0  0  0  0  0
   -1.0958   -0.6875    0.0000 C   0  0  0  0  0  0  0  0  0  0  0  0
   -0.3708   -1.9292    0.0000 C   0  0  0  0  0  0  0  0  0  0  0  0
   -1.8125   -1.9292    0.0000 C   0  0  0  0  0  0  0  0  0  0  0  0
   -1.0958   -2.3292    0.0000 N   0  0  0  0  0  0  0  0  0  0  0  0
   -1.8125   -1.0875    0.0000 C   0  0  0  0  0  0  0  0  0  0  0  0
   -2.5333   -2.3292    0.0000 C   0  0  0  0  0  0  0  0  0  0  0  0
    0.3500   -0.6667    0.0000 C   0  0  0  0  0  0  0  0  0  0  0  0
    1.0667   -0.2292    0.0000 N   0  0  0  0  0  0  0  0  0  0  0  0
   -3.0500   -2.9667    0.0000 C   0  0  0  0  0  0  0  0  0  0  0  0
   -3.3500   -2.1875    0.0000 C   0  0  0  0  0  0  0  0  0  0  0  0
   -1.0958    0.1333    0.0000 C   0  0  0  0  0  0  0  0  0  0  0  0
    0.3500   -2.3500    0.0000 S   0  0  0  0  0  0  0  0  0  0  0  0
   -1.8125    0.5500    0.0000 C   0  0  0  0  0  0  0  0  0  0  0  0
   -0.3708    0.5500    0.0000 C   0  0  0  0  0  0  0  0  0  0  0  0
   -1.0958    1.7958    0.0000 C   0  0  0  0  0  0  0  0  0  0  0  0
   -1.8125    1.3708    0.0000 C   0  0  0  0  0  0  0  0  0  0  0  0
   -0.3708    1.3958    0.0000 C   0  0  0  0  0  0  0  0  0  0  0  0
   -1.0708    2.6333    0.0000 F   0  0  0  0  0  0  0  0  0  0  0  0
  2  1  2  0  0  0  0
  3  1  1  0  0  0  0
  4  5  1  0  0  0  0
  4  6  2  0  0  0  0
  5  3  1  0  0  0  0
  6  2  1  0  0  0  0
  7  4  1  0  0  0  0
  8  1  1  0  0  0  0
  9  8  3  0  0  0  0
 10  7  1  0  0  0  0
 10 11  1  0  0  0  0
 11  7  1  0  0  0  0
 12  2  1  0  0  0  0
 13  3  2  0  0  0  0
 14 12  2  0  0  0  0
 15 12  1  0  0  0  0
 16 18  1  0  0  0  0
 16 17  2  0  0  0  0
 17 14  1  0  0  0  0
 18 15  2  0  0  0  0
 19 16  1  0  0  0  0
M  END
>  <ID>
5212481

>  <Supplier>
ChemBridge

>  <clogP>
2.270000000000000e+000

>  <RB>
2

>  <tPSA>
3.958000000000000e+001

>  <Hacc>
1

>  <Hdon>
1

>  <LogSw>
-3.375999999999999e+000

>  <Group>
3

$$$$
5212480
 OpenBabel03312015312D

 27 30  0  0  0  0  0  0  0  0999 V2000
    0.0542   -0.7000    0.0000 C   0  0  0  0  0  0  0  0  0  0  0  0
    0.8375   -1.1542    0.0000 N   0  0  0  0  0  0  0  0  0  0  0  0
    1.6167    0.2208    0.0000 C   0  0  0  0  0  0  0  0  0  0  0  0
    0.0542    0.2000    0.0000 C   0  0  0  0  0  0  0  0  0  0  0  0
    1.6167   -0.7167    0.0000 C   0  0  0  0  0  0  0  0  0  0  0  0
    0.8375    0.6625    0.0000 C   0  0  0  0  0  0  0  0  0  0  0  0
   -0.7833   -0.9792    0.0000 C   0  0  0  0  0  0  0  0  0  0  0  0
    0.8375    1.5625    0.0000 C   0  0  0  0  0  0  0  0  0  0  0  0
   -1.0833   -1.8375    0.0000 C   0  0  0  0  0  0  0  0  0  0  0  0
    2.4000    0.7000    0.0000 C   0  0  0  0  0  0  0  0  0  0  0  0
    3.1792    1.1833    0.0000 N   0  0  0  0  0  0  0  0  0  0  0  0
   -0.7833    0.4833    0.0000 C   0  0  0  0  0  0  0  0  0  0  0  0
   -1.9833   -2.0167    0.0000 C   0  0  0  0  0  0  0  0  0  0  0  0
    2.4000   -1.2000    0.0000 S   0  0  0  0  0  0  0  0  0  0  0  0
    1.5375    2.1208    0.0000 O   0  0  0  0  0  0  0  0  0  0  0  0
   -1.3000   -0.2542    0.0000 C   0  0  0  0  0  0  0  0  0  0  0  0
    3.9792   -1.2375    0.0000 C   0  0  0  0  0  0  0  0  0  0  0  0
   -2.4458   -2.7792    0.0000 O   0  0  0  0  0  0  0  0  0  0  0  0
    0.1000    2.0458    0.0000 C   0  0  0  0  0  0  0  0  0  0  0  0
   -2.5625   -1.3375    0.0000 C   0  0  0  0  0  0  0  0  0  0  0  0
    1.2167    2.9458    0.0000 C   0  0  0  0  0  0  0  0  0  0  0  0
   -3.3208   -2.5792    0.0000 C   0  0  0  0  0  0  0  0  0  0  0  0
    0.3375    2.9208    0.0000 C   0  0  0  0  0  0  0  0  0  0  0  0
   -3.3833   -1.6792    0.0000 C   0  0  0  0  0  0  0  0  0  0  0  0
    3.9375   -2.1375    0.0000 O   0  0  0  0  0  0  0  0  0  0  0  0
    3.2000   -0.7542    0.0000 C   0  0  0  0  0  0  0  0  0  0  0  0
    4.7542   -0.8167    0.0000 N   0  0  0  0  0  0  0  0  0  0  0  0
  2  1  2  0  0  0  0
  3  6  1  0  0  0  0
  3  5  2  0  0  0  0
  4  1  1  0  0  0  0
  5  2  1  0  0  0  0
  6  4  2  0  0  0  0
  7  1  1  0  0  0  0
  8  6  1  0  0  0  0
  9  7  2  0  0  0  0
 10  3  1  0  0  0  0
 11 10  3  0  0  0  0
 12  4  1  0  0  0  0
 12 16  1  0  0  0  0
 13  9  1  0  0  0  0
 14  5  1  0  0  0  0
 15  8  1  0  0  0  0
 16  7  1  0  0  0  0
 17 26  1  0  0  0  0
 18 13  1  0  0  0  0
 19  8  2  0  0  0  0
 20 13  2  0  0  0  0
 21 15  1  0  0  0  0
 22 18  1  0  0  0  0
 23 19  1  0  0  0  0
 23 21  2  0  0  0  0
 24 20  1  0  0  0  0
 24 22  2  0  0  0  0
 25 17  2  0  0  0  0
 26 14  1  0  0  0  0
 27 17  1  0  0  0  0
M  END
>  <ID>
5212480

>  <Supplier>
ChemBridge

>  <clogP>
2.760000000000000e+000

>  <RB>
5

>  <tPSA>
1.060500000000000e+002

>  <Hacc>
5

>  <Hdon>
1

>  <LogSw>
-4.574000000000000e+000

>  <Group>
1

>  <Core>
022

$$$$
9115289
 OpenBabel03312015312D

 27 30  0  0  0  0  0  0  0  0999 V2000
    6.9625    2.7458    0.0000 N   0  0  0  0  0  0  0  0  0  0  0  0
    6.2292    2.5958    0.0000 C   0  0  0  0  0  0  0  0  0  0  0  0
    3.6875    3.1333    0.0000 C   0  0  0  0  0  0  0  0  0  0  0  0
    6.1500    1.8458    0.0000 N   0  0  0  0  0  0  0  0  0  0  0  0
    6.8375    1.5458    0.0000 N   0  0  0  0  0  0  0  0  0  0  0  0
    7.3375    2.0958    0.0000 N   0  0  0  0  0  0  0  0  0  0  0  0
    3.0792    3.5708    0.0000 C   0  0  0  0  0  0  0  0  0  0  0  0
    2.4750    3.1333    0.0000 N   0  0  0  0  0  0  0  0  0  0  0  0
    3.4542    2.4208    0.0000 C   0  0  0  0  0  0  0  0  0  0  0  0
    2.7042    2.4208    0.0000 C   0  0  0  0  0  0  0  0  0  0  0  0
    5.6667    3.0958    0.0000 S   0  0  0  0  0  0  0  0  0  0  0  0
    4.4000    3.3625    0.0000 C   0  0  0  0  0  0  0  0  0  0  0  0
    7.2667    3.4333    0.0000 C   0  0  0  0  0  0  0  0  0  0  0  0
    4.9542    2.8625    0.0000 C   0  0  0  0  0  0  0  0  0  0  0  0
    4.5542    4.0917    0.0000 O   0  0  0  0  0  0  0  0  0  0  0  0
    1.7625    3.3625    0.0000 C   0  0  0  0  0  0  0  0  0  0  0  0
    3.8292    1.7708    0.0000 C   0  0  0  0  0  0  0  0  0  0  0  0
    2.3292    1.7708    0.0000 C   0  0  0  0  0  0  0  0  0  0  0  0
    8.0125    3.5208    0.0000 C   0  0  0  0  0  0  0  0  0  0  0  0
    6.8250    4.0292    0.0000 C   0  0  0  0  0  0  0  0  0  0  0  0
    1.6042    4.0917    0.0000 C   0  0  0  0  0  0  0  0  0  0  0  0
    3.4542    1.1208    0.0000 C   0  0  0  0  0  0  0  0  0  0  0  0
    2.7042    1.1208    0.0000 C   0  0  0  0  0  0  0  0  0  0  0  0
    0.8917    4.3250    0.0000 C   0  0  0  0  0  0  0  0  0  0  0  0
    7.1292    4.7167    0.0000 C   0  0  0  0  0  0  0  0  0  0  0  0
    8.3167    4.1917    0.0000 C   0  0  0  0  0  0  0  0  0  0  0  0
    7.8792    4.7917    0.0000 C   0  0  0  0  0  0  0  0  0  0  0  0
  2  1  1  0  0  0  0
  3 12  1  0  0  0  0
  4  2  2  0  0  0  0
  5  6  2  0  0  0  0
  5  4  1  0  0  0  0
  6  1  1  0  0  0  0
  7  3  2  0  0  0  0
  8  7  1  0  0  0  0
  9  3  1  0  0  0  0
 10  9  2  0  0  0  0
 10  8  1  0  0  0  0
 11  2  1  0  0  0  0
 12 14  1  0  0  0  0
 13  1  1  0  0  0  0
 14 11  1  0  0  0  0
 15 12  2  0  0  0  0
 16  8  1  0  0  0  0
 17  9  1  0  0  0  0
 18 10  1  0  0  0  0
 19 13  2  0  0  0  0
 20 13  1  0  0  0  0
 21 16  1  0  0  0  0
 22 17  2  0  0  0  0
 23 22  1  0  0  0  0
 23 18  2  0  0  0  0
 24 21  1  0  0  0  0
 25 20  2  0  0  0  0
 26 19  1  0  0  0  0
 27 25  1  0  0  0  0
 27 26  2  0  0  0  0
M  END
>  <ID>
9115289

>  <Supplier>
ChemBridge

>  <clogP>
4.459000000000001e+000

>  <RB>
5

>  <tPSA>
6.559999999999999e+001

>  <Hacc>
4

>  <Hdon>
0

>  <LogSw>
-5.159999999999998e+000

>  <Group>
2

$$$$
7511528
 OpenBabel03312015312D

 22 23  0  0  0  0  0  0  0  0999 V2000
    1.8792   -0.5250    0.0000 S   0  0  0  0  0  0  0  0  0  0  0  0
    2.5917   -0.1042    0.0000 N   0  0  0  0  0  0  0  0  0  0  0  0
    4.7292    1.1458    0.0000 C   0  0  0  0  0  0  0  0  0  0  0  0
    6.1417    1.1583    0.0000 C   0  0  0  0  0  0  0  0  0  0  0  0
    5.4417    0.7333    0.0000 N   0  0  0  0  0  0  0  0  0  0  0  0
    6.1292    1.9750    0.0000 C   0  0  0  0  0  0  0  0  0  0  0  0
    7.5542    1.1833    0.0000 C   0  0  0  0  0  0  0  0  0  0  0  0
    6.8542    0.7625    0.0000 C   0  0  0  0  0  0  0  0  0  0  0  0
    6.8250    2.3958    0.0000 C   0  0  0  0  0  0  0  0  0  0  0  0
    7.5417    2.0000    0.0000 C   0  0  0  0  0  0  0  0  0  0  0  0
    2.2875   -1.2375    0.0000 O   0  0  0  0  0  0  0  0  0  0  0  0
    1.4625    0.1958    0.0000 O   0  0  0  0  0  0  0  0  0  0  0  0
    4.0125    0.7250    0.0000 C   0  0  0  0  0  0  0  0  0  0  0  0
    3.3042   -0.5167    0.0000 C   0  0  0  0  0  0  0  0  0  0  0  0
    2.5792    0.7208    0.0000 C   0  0  0  0  0  0  0  0  0  0  0  0
    4.7250    1.9708    0.0000 O   0  0  0  0  0  0  0  0  0  0  0  0
    4.0167   -0.0917    0.0000 C   0  0  0  0  0  0  0  0  0  0  0  0
    3.2917    1.1333    0.0000 C   0  0  0  0  0  0  0  0  0  0  0  0
    1.1667   -0.9417    0.0000 C   0  0  0  0  0  0  0  0  0  0  0  0
    6.8667   -0.0542    0.0000 Cl  0  0  0  0  0  0  0  0  0  0  0  0
    8.2500    2.4208    0.0000 Cl  0  0  0  0  0  0  0  0  0  0  0  0
    6.8042    3.2208    0.0000 Cl  0  0  0  0  0  0  0  0  0  0  0  0
  2  1  1  0  0  0  0
  3 13  1  0  0  0  0
  4  5  1  0  0  0  0
  5  3  1  0  0  0  0
  6  4  1  0  0  0  0
  7  8  1  0  0  0  0
  8  4  2  0  0  0  0
  9  6  2  0  0  0  0
  9 10  1  0  0  0  0
 10  7  2  0  0  0  0
 11  1  2  0  0  0  0
 12  1  2  0  0  0  0
 13 18  1  0  0  0  0
 13 17  1  0  0  0  0
 14  2  1  0  0  0  0
 15  2  1  0  0  0  0
 16  3  2  0  0  0  0
 17 14  1  0  0  0  0
 18 15  1  0  0  0  0
 19  1  1  0  0  0  0
 20  8  1  0  0  0  0
 21 10  1  0  0  0  0
 22  9  1  0  0  0  0
M  END
>  <ID>
7511528

>  <Supplier>
ChemBridge

>  <clogP>
1.967000000000000e+000

>  <RB>
2

>  <tPSA>
6.647999999999998e+001

>  <Hacc>
4

>  <Hdon>
1

>  <LogSw>
-4.171000000000000e+000

>  <Group>
3

>  <Core>
050

$$$$
5939864
 OpenBabel03312015312D

 24 25  0  0  0  0  0  0  0  0999 V2000
    2.7667   -4.8292    0.0000 S   0  0  0  0  0  0  0  0  0  0  0  0
    0.1750   -1.0875    0.0000 C   0  0  0  0  0  0  0  0  0  0  0  0
   -0.4708   -1.4625    0.0000 C   0  0  0  0  0  0  0  0  0  0  0  0
    0.8167   -1.4625    0.0000 C   0  0  0  0  0  0  0  0  0  0  0  0
    2.1125   -4.4542    0.0000 C   0  0  0  0  0  0  0  0  0  0  0  0
    0.1750   -2.5792    0.0000 C   0  0  0  0  0  0  0  0  0  0  0  0
    3.1417   -4.1750    0.0000 O   0  0  0  0  0  0  0  0  0  0  0  0
    2.3917   -5.4875    0.0000 O   0  0  0  0  0  0  0  0  0  0  0  0
   -0.4708   -2.2125    0.0000 C   0  0  0  0  0  0  0  0  0  0  0  0
    0.8167   -2.2125    0.0000 C   0  0  0  0  0  0  0  0  0  0  0  0
    0.1750   -3.3292    0.0000 N   0  0  0  0  0  0  0  0  0  0  0  0
    3.4250   -5.2042    0.0000 N   0  0  0  0  0  0  0  0  0  0  0  0
    1.4625   -4.8250    0.0000 C   0  0  0  0  0  0  0  0  0  0  0  0
    2.1125   -3.7042    0.0000 C   0  0  0  0  0  0  0  0  0  0  0  0
   -1.1250   -1.0750    0.0000 C   0  0  0  0  0  0  0  0  0  0  0  0
    1.4750   -1.0792    0.0000 C   0  0  0  0  0  0  0  0  0  0  0  0
    0.1750   -0.3417    0.0000 O   0  0  0  0  0  0  0  0  0  0  0  0
    0.8167   -3.7042    0.0000 C   0  0  0  0  0  0  0  0  0  0  0  0
    0.8167   -4.4542    0.0000 C   0  0  0  0  0  0  0  0  0  0  0  0
    1.4667   -3.3292    0.0000 C   0  0  0  0  0  0  0  0  0  0  0  0
   -1.1208   -0.3167    0.0000 C   0  0  0  0  0  0  0  0  0  0  0  0
   -1.7708   -1.4500    0.0000 C   0  0  0  0  0  0  0  0  0  0  0  0
    1.4667   -0.3292    0.0000 C   0  0  0  0  0  0  0  0  0  0  0  0
    2.1250   -1.4542    0.0000 C   0  0  0  0  0  0  0  0  0  0  0  0
  2  4  2  0  0  0  0
  2  3  1  0  0  0  0
  3  9  2  0  0  0  0
  4 10  1  0  0  0  0
  5  1  1  0  0  0  0
  6 11  1  0  0  0  0
  7  1  2  0  0  0  0
  8  1  2  0  0  0  0
  9  6  1  0  0  0  0
 10  6  2  0  0  0  0
 11 18  1  0  0  0  0
 12  1  1  0  0  0  0
 13  5  2  0  0  0  0
 14  5  1  0  0  0  0
 15  3  1  0  0  0  0
 16  4  1  0  0  0  0
 17  2  1  0  0  0  0
 18 20  1  0  0  0  0
 19 13  1  0  0  0  0
 19 18  2  0  0  0  0
 20 14  2  0  0  0  0
 21 15  1  0  0  0  0
 22 15  1  0  0  0  0
 23 16  1  0  0  0  0
 24 16  1  0  0  0  0
M  END
>  <ID>
5939864

>  <Supplier>
ChemBridge

>  <clogP>
3.940000000000000e+000

>  <RB>
3

>  <tPSA>
9.241999999999999e+001

>  <Hacc>
4

>  <Hdon>
3

>  <LogSw>
-5.106000000000000e+000

>  <Group>
3

$$$$
9099051
 OpenBabel03312015312D

 22 23  0  0  0  0  0  0  0  0999 V2000
   -1.0000    0.2875    0.0000 S   0  0  0  0  0  0  0  0  0  0  0  0
    0.0042    0.3083    0.0000 N   0  0  0  0  0  0  0  0  0  0  0  0
   -1.9958    0.2833    0.0000 C   0  0  0  0  0  0  0  0  0  0  0  0
    1.9625    0.2958    0.0000 N   0  0  0  0  0  0  0  0  0  0  0  0
    2.9542    0.2958    0.0000 C   0  0  0  0  0  0  0  0  0  0  0  0
   -2.4833   -0.5667    0.0000 C   0  0  0  0  0  0  0  0  0  0  0  0
   -0.9875   -0.7917    0.0000 O   0  0  0  0  0  0  0  0  0  0  0  0
   -0.9625    1.4458    0.0000 O   0  0  0  0  0  0  0  0  0  0  0  0
    0.5000    1.1458    0.0000 C   0  0  0  0  0  0  0  0  0  0  0  0
    0.5000   -0.5417    0.0000 C   0  0  0  0  0  0  0  0  0  0  0  0
   -3.4708   -0.5667    0.0000 C   0  0  0  0  0  0  0  0  0  0  0  0
    1.4792   -0.5500    0.0000 C   0  0  0  0  0  0  0  0  0  0  0  0
    1.4792    1.1458    0.0000 C   0  0  0  0  0  0  0  0  0  0  0  0
   -2.4875    1.1375    0.0000 C   0  0  0  0  0  0  0  0  0  0  0  0
   -3.9708    0.2833    0.0000 C   0  0  0  0  0  0  0  0  0  0  0  0
    3.4792    1.1458    0.0000 O   0  0  0  0  0  0  0  0  0  0  0  0
   -3.4833    1.1333    0.0000 C   0  0  0  0  0  0  0  0  0  0  0  0
    3.4667   -0.5792    0.0000 C   0  0  0  0  0  0  0  0  0  0  0  0
   -3.9708   -1.4375    0.0000 C   0  0  0  0  0  0  0  0  0  0  0  0
   -4.9708    0.2833    0.0000 C   0  0  0  0  0  0  0  0  0  0  0  0
    4.4625   -0.5792    0.0000 C   0  0  0  0  0  0  0  0  0  0  0  0
    4.9542    0.2750    0.0000 C   0  0  0  0  0  0  0  0  0  0  0  0
  2  1  1  0  0  0  0
  3  1  1  0  0  0  0
  4 12  1  0  0  0  0
  4 13  1  0  0  0  0
  5  4  1  0  0  0  0
  6  3  1  0  0  0  0
  7  1  2  0  0  0  0
  8  1  2  0  0  0  0
  9  2  1  0  0  0  0
 10  2  1  0  0  0  0
 11  6  2  0  0  0  0
 11 15  1  0  0  0  0
 12 10  1  0  0  0  0
 13  9  1  0  0  0  0
 14  3  2  0  0  0  0
 15 17  2  0  0  0  0
 16  5  2  0  0  0  0
 17 14  1  0  0  0  0
 18  5  1  0  0  0  0
 19 11  1  0  0  0  0
 20 15  1  0  0  0  0
 21 18  1  0  0  0  0
 22 21  1  0  0  0  0
M  END
>  <ID>
9099051

>  <Supplier>
ChemBridge

>  <clogP>
2.870000000000000e+000

>  <RB>
1

>  <tPSA>
5.769000000000000e+001

>  <Hacc>
4

>  <Hdon>
0

>  <LogSw>
-4.017000000000000e+000

>  <Group>
2

>  <Core>
170

$$$$
6141441
 OpenBabel03312015312D

 27 30  0  0  0  0  0  0  0  0999 V2000
   -0.6208    0.0708    0.0000 N   0  0  0  0  0  0  0  0  0  0  0  0
   -1.4000   -0.2500    0.0000 C   0  0  0  0  0  0  0  0  0  0  0  0
   -0.0208   -0.6042    0.0000 C   0  0  0  0  0  0  0  0  0  0  0  0
   -1.3625   -1.1292    0.0000 C   0  0  0  0  0  0  0  0  0  0  0  0
   -0.5000   -1.3667    0.0000 C   0  0  0  0  0  0  0  0  0  0  0  0
   -0.4458    0.9708    0.0000 C   0  0  0  0  0  0  0  0  0  0  0  0
    3.1375   -1.0875    0.0000 N   0  0  0  0  0  0  0  0  0  0  0  0
    0.4167    1.2708    0.0000 C   0  0  0  0  0  0  0  0  0  0  0  0
    4.0000   -2.2292    0.0000 N   0  0  0  0  0  0  0  0  0  0  0  0
    4.5000   -1.5042    0.0000 N   0  0  0  0  0  0  0  0  0  0  0  0
    3.9792   -0.7875    0.0000 C   0  0  0  0  0  0  0  0  0  0  0  0
    3.1375   -1.9667    0.0000 C   0  0  0  0  0  0  0  0  0  0  0  0
    2.4542   -0.5042    0.0000 N   0  0  0  0  0  0  0  0  0  0  0  0
   -2.1625    0.2958    0.0000 O   0  0  0  0  0  0  0  0  0  0  0  0
    0.8792   -0.5500    0.0000 O   0  0  0  0  0  0  0  0  0  0  0  0
    0.6000    2.1500    0.0000 C   0  0  0  0  0  0  0  0  0  0  0  0
    1.1000    0.6958    0.0000 C   0  0  0  0  0  0  0  0  0  0  0  0
    2.6167    0.3958    0.0000 C   0  0  0  0  0  0  0  0  0  0  0  0
    1.4375    2.4583    0.0000 C   0  0  0  0  0  0  0  0  0  0  0  0
    1.9375    0.9958    0.0000 C   0  0  0  0  0  0  0  0  0  0  0  0
    2.1000    1.8708    0.0000 C   0  0  0  0  0  0  0  0  0  0  0  0
   -0.2625   -2.2292    0.0000 C   0  0  0  0  0  0  0  0  0  0  0  0
   -1.9833   -1.7667    0.0000 C   0  0  0  0  0  0  0  0  0  0  0  0
   -0.1000    2.7500    0.0000 O   0  0  0  0  0  0  0  0  0  0  0  0
   -0.9625    2.4708    0.0000 C   0  0  0  0  0  0  0  0  0  0  0  0
   -1.7458   -2.6292    0.0000 C   0  0  0  0  0  0  0  0  0  0  0  0
   -0.8833   -2.8500    0.0000 C   0  0  0  0  0  0  0  0  0  0  0  0
  2  1  1  0  0  0  0
  3  1  1  0  0  0  0
  4  2  1  0  0  0  0
  4  5  2  0  0  0  0
  5  3  1  0  0  0  0
  6  1  1  0  0  0  0
  7 13  1  0  0  0  0
  8  6  1  0  0  0  0
  9 12  2  0  0  0  0
 10 11  2  0  0  0  0
 10  9  1  0  0  0  0
 11  7  1  0  0  0  0
 12  7  1  0  0  0  0
 13 18  2  0  0  0  0
 14  2  2  0  0  0  0
 15  3  2  0  0  0  0
 16  8  1  0  0  0  0
 17  8  2  0  0  0  0
 18 20  1  0  0  0  0
 19 16  2  0  0  0  0
 19 21  1  0  0  0  0
 20 17  1  0  0  0  0
 21 20  2  0  0  0  0
 22  5  1  0  0  0  0
 23  4  1  0  0  0  0
 24 16  1  0  0  0  0
 25 24  1  0  0  0  0
 26 23  2  0  0  0  0
 26 27  1  0  0  0  0
 27 22  2  0  0  0  0
M  END
>  <ID>
6141441

>  <Supplier>
ChemBridge

>  <clogP>
1.520000000000000e+000

>  <RB>
4

>  <tPSA>
8.968000000000002e+001

>  <Hacc>
7

>  <Hdon>
0

>  <LogSw>
-3.133000000000000e+000

>  <Group>
3

$$$$
9099056
 OpenBabel03312015312D

 19 20  0  0  0  0  0  0  0  0999 V2000
   -1.8833    0.8958    0.0000 C   0  0  0  0  0  0  0  0  0  0  0  0
   -2.8750    1.0125    0.0000 N   0  0  0  0  0  0  0  0  0  0  0  0
   -1.4875    1.8333    0.0000 C   0  0  0  0  0  0  0  0  0  0  0  0
   -1.3833    0.0333    0.0000 N   0  0  0  0  0  0  0  0  0  0  0  0
   -0.3833    0.0333    0.0000 C   0  0  0  0  0  0  0  0  0  0  0  0
   -3.0875    1.9833    0.0000 O   0  0  0  0  0  0  0  0  0  0  0  0
   -2.2000    2.4958    0.0000 C   0  0  0  0  0  0  0  0  0  0  0  0
    1.1042   -0.8375    0.0000 O   0  0  0  0  0  0  0  0  0  0  0  0
    1.5542   -1.7375    0.0000 C   0  0  0  0  0  0  0  0  0  0  0  0
    0.1042   -0.8375    0.0000 C   0  0  3  0  0  0  0  0  0  0  0  0
    0.1375    0.8958    0.0000 O   0  0  0  0  0  0  0  0  0  0  0  0
    2.5667   -1.7375    0.0000 C   0  0  0  0  0  0  0  0  0  0  0  0
    3.0292   -0.8667    0.0000 Br  0  0  0  0  0  0  0  0  0  0  0  0
   -2.0583    3.4833    0.0000 C   0  0  0  0  0  0  0  0  0  0  0  0
    1.0750   -2.5667    0.0000 C   0  0  0  0  0  0  0  0  0  0  0  0
   -0.4000   -1.6875    0.0000 C   0  0  0  0  0  0  0  0  0  0  0  0
    3.0792   -2.6417    0.0000 C   0  0  0  0  0  0  0  0  0  0  0  0
    1.5250   -3.4375    0.0000 C   0  0  0  0  0  0  0  0  0  0  0  0
    2.5667   -3.4667    0.0000 C   0  0  0  0  0  0  0  0  0  0  0  0
  2  1  2  0  0  0  0
  3  1  1  0  0  0  0
  4  1  1  0  0  0  0
  5  4  1  0  0  0  0
  6  2  1  0  0  0  0
  6  7  1  0  0  0  0
  7  3  2  0  0  0  0
  8 10  1  0  0  0  0
  9  8  1  0  0  0  0
 10  5  1  0  0  0  0
 11  5  2  0  0  0  0
 12  9  1  0  0  0  0
 13 12  1  0  0  0  0
 14  7  1  0  0  0  0
 15  9  2  0  0  0  0
 16 10  1  0  0  0  0
 17 12  2  0  0  0  0
 17 19  1  0  0  0  0
 18 15  1  0  0  0  0
 19 18  2  0  0  0  0
M  END
>  <ID>
9099056

>  <Supplier>
ChemBridge

>  <clogP>
2.811999999999999e+000

>  <RB>
4

>  <tPSA>
6.436000000000001e+001

>  <Hacc>
4

>  <Hdon>
1

>  <LogSw>
-3.973000000000000e+000

>  <Group>
2

>  <Core>
315

$$$$
5172943
 OpenBabel03312015312D

 21 22  0  0  0  0  0  0  0  0999 V2000
   -3.4958   -0.1167    0.0000 C   0  0  0  0  0  0  0  0  0  0  0  0
    4.1667   -0.1042    0.0000 N   0  3  0  0  0  0  0  0  0  0  0  0
   -4.5333    0.2333    0.0000 N   0  0  0  0  0  0  0  0  0  0  0  0
   -5.1833   -0.6542    0.0000 O   0  0  0  0  0  0  0  0  0  0  0  0
   -3.4958   -1.2167    0.0000 C   0  0  0  0  0  0  0  0  0  0  0  0
   -4.5333   -1.5500    0.0000 N   0  0  0  0  0  0  0  0  0  0  0  0
   -2.5333    0.4500    0.0000 C   0  0  0  0  0  0  0  0  0  0  0  0
   -1.5833   -0.1167    0.0000 N   0  0  0  0  0  0  0  0  0  0  0  0
    0.3500   -0.1167    0.0000 C   0  0  0  0  0  0  0  0  0  0  0  0
    3.2292    0.4500    0.0000 C   0  0  0  0  0  0  0  0  0  0  0  0
   -0.6208    0.4500    0.0000 O   0  0  0  0  0  0  0  0  0  0  0  0
    1.3167    0.4500    0.0000 C   0  0  0  0  0  0  0  0  0  0  0  0
    2.2667   -0.0875    0.0000 C   0  0  0  0  0  0  0  0  0  0  0  0
    4.2500   -1.2167    0.0000 O   0  5  0  0  0  0  0  0  0  0  0  0
    5.1542    0.3625    0.0000 O   0  0  0  0  0  0  0  0  0  0  0  0
    0.3500   -1.2167    0.0000 O   0  0  0  0  0  0  0  0  0  0  0  0
   -2.5958   -1.8792    0.0000 C   0  0  0  0  0  0  0  0  0  0  0  0
    3.2292    1.5500    0.0000 C   0  0  0  0  0  0  0  0  0  0  0  0
   -2.5333    1.5500    0.0000 C   0  0  0  0  0  0  0  0  0  0  0  0
    1.3167    1.5500    0.0000 C   0  0  0  0  0  0  0  0  0  0  0  0
    2.2667    2.1208    0.0000 C   0  0  0  0  0  0  0  0  0  0  0  0
  2 10  1  0  0  0  0
  3  1  2  0  0  0  0
  4  3  1  0  0  0  0
  5  1  1  0  0  0  0
  6  5  2  0  0  0  0
  6  4  1  0  0  0  0
  7  1  1  0  0  0  0
  8  7  2  0  0  0  0
  9 11  1  0  0  0  0
 10 13  2  0  0  0  0
 11  8  1  0  0  0  0
 12  9  1  0  0  0  0
 13 12  1  0  0  0  0
 14  2  1  0  0  0  0
 15  2  2  0  0  0  0
 16  9  2  0  0  0  0
 17  5  1  0  0  0  0
 18 21  2  0  0  0  0
 18 10  1  0  0  0  0
 19  7  1  0  0  0  0
 20 12  2  0  0  0  0
 21 20  1  0  0  0  0
M  CHG  2   2   1  14  -1
M  END
>  <ID>
5172943

>  <Supplier>
ChemBridge

>  <clogP>
2.500000000000000e+000

>  <RB>
4

>  <tPSA>
1.207200000000000e+002

>  <Hacc>
8

>  <Hdon>
0

>  <LogSw>
-3.842000000000000e+000

>  <Group>
3

$$$$
7933372
 OpenBabel03312015312D

 21 22  0  0  0  0  0  0  0  0999 V2000
    4.5500    2.1208    0.0000 C   0  0  0  0  0  0  0  0  0  0  0  0
    3.9000    2.4958    0.0000 N   0  0  0  0  0  0  0  0  0  0  0  0
    3.2500    2.1208    0.0000 C   0  0  0  0  0  0  0  0  0  0  0  0
    2.6000    2.4958    0.0000 C   0  0  0  0  0  0  0  0  0  0  0  0
    5.2000    2.4958    0.0000 C   0  0  3  0  0  0  0  0  0  0  0  0
    5.8500    2.1208    0.0000 O   0  0  0  0  0  0  0  0  0  0  0  0
    4.5500    1.3708    0.0000 O   0  0  0  0  0  0  0  0  0  0  0  0
    6.5000    2.4958    0.0000 C   0  0  0  0  0  0  0  0  0  0  0  0
    1.9500    2.1208    0.0000 C   0  0  0  0  0  0  0  0  0  0  0  0
    7.1500    2.1208    0.0000 C   0  0  0  0  0  0  0  0  0  0  0  0
    3.2500    1.3708    0.0000 C   0  0  0  0  0  0  0  0  0  0  0  0
    7.7917    2.4958    0.0000 C   0  0  0  0  0  0  0  0  0  0  0  0
    1.9500    1.3708    0.0000 C   0  0  0  0  0  0  0  0  0  0  0  0
    2.6000    0.9958    0.0000 C   0  0  0  0  0  0  0  0  0  0  0  0
    8.4417    2.1208    0.0000 Br  0  0  0  0  0  0  0  0  0  0  0  0
    7.1500    3.6208    0.0000 C   0  0  0  0  0  0  0  0  0  0  0  0
    2.6000    3.2458    0.0000 C   0  0  0  0  0  0  0  0  0  0  0  0
    6.5000    3.2458    0.0000 C   0  0  0  0  0  0  0  0  0  0  0  0
    5.2000    3.2458    0.0000 C   0  0  0  0  0  0  0  0  0  0  0  0
    7.7917    3.2458    0.0000 C   0  0  0  0  0  0  0  0  0  0  0  0
    1.3042    0.9958    0.0000 C   0  0  0  0  0  0  0  0  0  0  0  0
  2  1  1  0  0  0  0
  3  2  1  0  0  0  0
  4  3  1  0  0  0  0
  5  1  1  0  0  0  0
  6  5  1  0  0  0  0
  7  1  2  0  0  0  0
  8  6  1  0  0  0  0
  9  4  2  0  0  0  0
 10  8  1  0  0  0  0
 11  3  2  0  0  0  0
 12 10  2  0  0  0  0
 12 20  1  0  0  0  0
 13 14  2  0  0  0  0
 13  9  1  0  0  0  0
 14 11  1  0  0  0  0
 15 12  1  0  0  0  0
 16 18  1  0  0  0  0
 17  4  1  0  0  0  0
 18  8  2  0  0  0  0
 19  5  1  0  0  0  0
 20 16  2  0  0  0  0
 21 13  1  0  0  0  0
M  END
>  <ID>
7933372

>  <Supplier>
ChemBridge

>  <clogP>
4.337000000000000e+000

>  <RB>
4

>  <tPSA>
3.833000000000000e+001

>  <Hacc>
2

>  <Hdon>
1

>  <LogSw>
-5.443000000000001e+000

>  <Group>
1

>  <Core>
315

$$$$
9099059
 OpenBabel03312015312D

 20 21  0  0  0  0  0  0  0  0999 V2000
    1.7667   -0.7542    0.0000 C   0  0  0  0  0  0  0  0  0  0  0  0
    1.2417    0.1083    0.0000 C   0  0  0  0  0  0  0  0  0  0  0  0
   -1.2625    1.0708    0.0000 C   0  0  0  0  0  0  0  0  0  0  0  0
   -0.2500    0.9625    0.0000 C   0  0  0  0  0  0  0  0  0  0  0  0
   -1.4375    2.0333    0.0000 C   0  0  0  0  0  0  0  0  0  0  0  0
    0.1667    1.8583    0.0000 N   0  0  0  0  0  0  0  0  0  0  0  0
    0.2417    0.1083    0.0000 N   0  0  0  0  0  0  0  0  0  0  0  0
   -0.6208    2.5458    0.0000 O   0  0  0  0  0  0  0  0  0  0  0  0
    2.7542   -0.7542    0.0000 C   0  0  0  0  0  0  0  0  0  0  0  0
   -2.3500    2.4375    0.0000 C   0  0  0  0  0  0  0  0  0  0  0  0
    1.2625   -1.6042    0.0000 C   0  0  0  0  0  0  0  0  0  0  0  0
    1.7500    0.9708    0.0000 O   0  0  0  0  0  0  0  0  0  0  0  0
    3.2542   -1.6042    0.0000 C   0  0  0  0  0  0  0  0  0  0  0  0
    1.7667   -2.4917    0.0000 C   0  0  0  0  0  0  0  0  0  0  0  0
    3.2417    0.1083    0.0000 Cl  0  0  0  0  0  0  0  0  0  0  0  0
    2.7667   -2.4917    0.0000 C   0  0  0  0  0  0  0  0  0  0  0  0
    1.2750   -3.3542    0.0000 Br  0  0  0  0  0  0  0  0  0  0  0  0
   -1.9500    3.3625    0.0000 C   0  0  0  0  0  0  0  0  0  0  0  0
   -2.7625    1.5083    0.0000 C   0  0  0  0  0  0  0  0  0  0  0  0
   -3.2583    2.8375    0.0000 C   0  0  0  0  0  0  0  0  0  0  0  0
  2  1  1  0  0  0  0
  3  4  1  0  0  0  0
  4  7  1  0  0  0  0
  5  3  2  0  0  0  0
  5  8  1  0  0  0  0
  6  4  2  0  0  0  0
  7  2  1  0  0  0  0
  8  6  1  0  0  0  0
  9  1  1  0  0  0  0
 10  5  1  0  0  0  0
 11  1  2  0  0  0  0
 12  2  2  0  0  0  0
 13  9  2  0  0  0  0
 14 11  1  0  0  0  0
 15  9  1  0  0  0  0
 16 14  2  0  0  0  0
 16 13  1  0  0  0  0
 17 14  1  0  0  0  0
 18 10  1  0  0  0  0
 19 10  1  0  0  0  0
 20 10  1  0  0  0  0
M  END
>  <ID>
9099059

>  <Supplier>
ChemBridge

>  <clogP>
3.809000000000000e+000

>  <RB>
3

>  <tPSA>
5.513000000000000e+001

>  <Hacc>
3

>  <Hdon>
1

>  <LogSw>
-5.060000000000000e+000

>  <Group>
3

$$$$
6141449
 OpenBabel03312015312D

 29 32  0  0  0  0  0  0  0  0999 V2000
    0.6667    0.2458    0.0000 N   0  0  0  0  0  0  0  0  0  0  0  0
    0.4667   -0.2542    0.0000 C   0  0  0  0  0  0  0  0  0  0  0  0
    0.2500    0.6000    0.0000 C   0  0  0  0  0  0  0  0  0  0  0  0
   -0.2333    0.3000    0.0000 C   0  0  0  0  0  0  0  0  0  0  0  0
   -0.0958   -0.2375    0.0000 S   0  0  0  0  0  0  0  0  0  0  0  0
   -0.7125    0.5625    0.0000 C   0  0  0  0  0  0  0  0  0  0  0  0
    1.2292    0.3833    0.0000 C   0  0  0  0  0  0  0  0  0  0  0  0
    2.5292   -0.3000    0.0000 N   0  0  0  0  0  0  0  0  0  0  0  0
    2.1500    0.1000    0.0000 C   0  0  0  0  0  0  0  0  0  0  0  0
    1.6042   -0.0167    0.0000 C   0  0  0  0  0  0  0  0  0  0  0  0
    0.7875   -0.7375    0.0000 S   0  0  0  0  0  0  0  0  0  0  0  0
   -2.1500    0.2458    0.0000 C   0  0  0  0  0  0  0  0  0  0  0  0
    3.0542   -0.1792    0.0000 C   0  0  0  0  0  0  0  0  0  0  0  0
   -2.1500   -0.3167    0.0000 C   0  0  0  0  0  0  0  0  0  0  0  0
   -2.6958    0.4208    0.0000 O   0  0  0  0  0  0  0  0  0  0  0  0
    0.3042    1.1625    0.0000 O   0  0  0  0  0  0  0  0  0  0  0  0
   -1.1958    0.2625    0.0000 C   0  0  0  0  0  0  0  0  0  0  0  0
   -2.6958   -0.5000    0.0000 O   0  0  0  0  0  0  0  0  0  0  0  0
   -3.0125   -0.0292    0.0000 C   0  0  0  0  0  0  0  0  0  0  0  0
   -1.6708    0.5208    0.0000 C   0  0  0  0  0  0  0  0  0  0  0  0
    2.3292    0.6208    0.0000 O   0  0  0  0  0  0  0  0  0  0  0  0
    3.4292   -0.5792    0.0000 C   0  0  0  0  0  0  0  0  0  0  0  0
   -1.6708   -0.6000    0.0000 C   0  0  0  0  0  0  0  0  0  0  0  0
   -1.1958   -0.3167    0.0000 C   0  0  0  0  0  0  0  0  0  0  0  0
    3.2292    0.3500    0.0000 C   0  0  0  0  0  0  0  0  0  0  0  0
    3.2500   -1.0875    0.0000 C   0  0  0  0  0  0  0  0  0  0  0  0
    3.9792   -0.4667    0.0000 C   0  0  0  0  0  0  0  0  0  0  0  0
    3.7792    0.4625    0.0000 C   0  0  0  0  0  0  0  0  0  0  0  0
    4.1542    0.0458    0.0000 C   0  0  0  0  0  0  0  0  0  0  0  0
  2  1  1  0  0  0  0
  3  1  1  0  0  0  0
  4  3  1  0  0  0  0
  4  5  1  0  0  0  0
  5  2  1  0  0  0  0
  6  4  2  0  0  0  0
  7  1  1  0  0  0  0
  8  9  1  0  0  0  0
  9 10  1  0  0  0  0
 10  7  1  0  0  0  0
 11  2  2  0  0  0  0
 12 20  1  0  0  0  0
 12 14  2  0  0  0  0
 13  8  1  0  0  0  0
 14 23  1  0  0  0  0
 15 12  1  0  0  0  0
 16  3  2  0  0  0  0
 17  6  1  0  0  0  0
 18 14  1  0  0  0  0
 18 19  1  0  0  0  0
 19 15  1  0  0  0  0
 20 17  2  0  0  0  0
 21  9  2  0  0  0  0
 22 13  2  0  0  0  0
 23 24  2  0  0  0  0
 24 17  1  0  0  0  0
 25 13  1  0  0  0  0
 26 22  1  0  0  0  0
 27 22  1  0  0  0  0
 27 29  2  0  0  0  0
 28 25  2  0  0  0  0
 29 28  1  0  0  0  0
M  END
>  <ID>
6141449

>  <Supplier>
ChemBridge

>  <clogP>
2.550000000000000e+000

>  <RB>
5

>  <tPSA>
6.787000000000001e+001

>  <Hacc>
4

>  <Hdon>
1

>  <LogSw>
-4.487000000000000e+000

>  <Group>
1

>  <Core>
001

$$$$
7279848
 OpenBabel03312015312D

 26 27  0  0  0  0  0  0  0  0999 V2000
    1.4292   -1.7042    0.0000 C   0  0  0  0  0  0  0  0  0  0  0  0
   -0.8208    2.2500    0.0000 C   0  0  0  0  0  0  0  0  0  0  0  0
   -0.7625   -1.7375    0.0000 C   0  0  0  0  0  0  0  0  0  0  0  0
    2.6500    0.3000    0.0000 C   0  0  0  0  0  0  0  0  0  0  0  0
  -16.0000    8.9667    0.0000 N   0  0  0  0  0  0  0  0  0  0  0  0
   -2.0458    4.3542    0.0000 C   0  0  0  0  0  0  0  0  0  0  0  0
  -12.0667    8.0917    0.0000 N   0  0  0  0  0  0  0  0  0  0  0  0
   -1.9833    0.3333    0.0000 C   0  0  0  0  0  0  0  0  0  0  0  0
    1.5500    2.2958    0.0000 C   0  0  0  0  0  0  0  0  0  0  0  0
  -13.7500    9.9667    0.0000 C   0  0  0  0  0  0  0  0  0  0  0  0
  -15.6792    6.4792    0.0000 C   0  0  0  0  0  0  0  0  0  0  0  0
  -13.3167    5.9792    0.0000 C   0  0  0  0  0  0  0  0  0  0  0  0
   -0.8208    6.4667    0.0000 O   0  0  0  0  0  0  0  0  0  0  0  0
   -4.4833    4.3542    0.0000 N   0  0  0  0  0  0  0  0  0  0  0  0
    2.4375   -3.7792    0.0000 O   0  0  0  0  0  0  0  0  0  0  0  0
   -1.7458   -3.8375    0.0000 O   0  0  0  0  0  0  0  0  0  0  0  0
    4.9667    0.3333    0.0000 O   0  0  0  0  0  0  0  0  0  0  0  0
   -9.6292    8.2792    0.0000 C   0  0  0  0  0  0  0  0  0  0  0  0
   -8.2667    6.2292    0.0000 C   0  0  0  0  0  0  0  0  0  0  0  0
   -5.7833    6.4167    0.0000 C   0  0  0  0  0  0  0  0  0  0  0  0
    1.1292   -5.7375    0.0000 C   0  0  0  0  0  0  0  0  0  0  0  0
   -0.3958   -5.7667    0.0000 C   0  0  0  0  0  0  0  0  0  0  0  0
    6.1542   -1.6667    0.0000 C   0  0  0  0  0  0  0  0  0  0  0  0
   -1.3708   -7.9000    0.0000 C   0  0  0  0  0  0  0  0  0  0  0  0
    8.4500   -1.6375    0.0000 C   0  0  0  0  0  0  0  0  0  0  0  0
    2.1292   -7.8042    0.0000 C   0  0  0  0  0  0  0  0  0  0  0  0
  2  9  1  0  0  0  0
  2  8  2  0  0  0  0
  3  1  2  0  0  0  0
  4  1  1  0  0  0  0
  5 10  2  0  0  0  0
  6  2  1  0  0  0  0
  7 18  1  0  0  0  0
  8  3  1  0  0  0  0
  9  4  2  0  0  0  0
 10  7  1  0  0  0  0
 11 12  2  0  0  0  0
 11  5  1  0  0  0  0
 12  7  1  0  0  0  0
 13  6  2  0  0  0  0
 14  6  1  0  0  0  0
 15  1  1  0  0  0  0
 16  3  1  0  0  0  0
 17  4  1  0  0  0  0
 18 19  1  0  0  0  0
 19 20  1  0  0  0  0
 20 14  1  0  0  0  0
 21 15  1  0  0  0  0
 22 16  1  0  0  0  0
 23 17  1  0  0  0  0
 24 22  1  0  0  0  0
 25 23  1  0  0  0  0
 26 21  1  0  0  0  0
M  END
>  <ID>
7279848

>  <Supplier>
ChemBridge

>  <clogP>
2.190000000000000e+000

>  <RB>
5

>  <tPSA>
7.461000000000000e+001

>  <Hacc>
6

>  <Hdon>
1

>  <LogSw>
-3.706000000000000e+000

>  <Group>
3

$$$$
7957876
 OpenBabel03312015312D

 20 22  0  0  0  0  0  0  0  0999 V2000
    5.0000    1.7750    0.0000 C   0  0  0  0  0  0  0  0  0  0  0  0
    1.8625    1.1500    0.0000 S   0  0  0  0  0  0  0  0  0  0  0  0
    5.0792    2.5208    0.0000 S   0  0  0  0  0  0  0  0  0  0  0  0
    5.6792    1.4708    0.0000 C   0  0  0  0  0  0  0  0  0  0  0  0
    4.3500    1.4000    0.0000 C   0  0  0  0  0  0  0  0  0  0  0  0
    6.1875    2.0333    0.0000 C   0  0  0  0  0  0  0  0  0  0  0  0
    5.8125    2.6833    0.0000 C   0  0  0  0  0  0  0  0  0  0  0  0
    2.3667    1.7083    0.0000 C   0  0  0  0  0  0  0  0  0  0  0  0
    2.2375    0.5000    0.0000 C   0  0  0  0  0  0  0  0  0  0  0  0
    3.7000    1.7750    0.0000 N   0  0  0  0  0  0  0  0  0  0  0  0
    2.9667    0.6583    0.0000 C   0  0  0  0  0  0  0  0  0  0  0  0
    3.0500    1.4000    0.0000 C   0  0  3  0  0  0  0  0  0  0  0  0
    1.3625    1.7083    0.0000 O   0  0  0  0  0  0  0  0  0  0  0  0
    1.2542    0.7083    0.0000 O   0  0  0  0  0  0  0  0  0  0  0  0
    4.3500    0.6500    0.0000 O   0  0  0  0  0  0  0  0  0  0  0  0
    5.8417    0.7375    0.0000 Cl  0  0  0  0  0  0  0  0  0  0  0  0
    6.9375    2.0333    0.0000 C   0  0  0  0  0  0  0  0  0  0  0  0
    6.1875    3.3333    0.0000 C   0  0  0  0  0  0  0  0  0  0  0  0
    7.3125    2.6833    0.0000 C   0  0  0  0  0  0  0  0  0  0  0  0
    6.9375    3.3333    0.0000 C   0  0  0  0  0  0  0  0  0  0  0  0
  2  8  1  0  0  0  0
  3  1  1  0  0  0  0
  4  1  2  0  0  0  0
  5  1  1  0  0  0  0
  6  4  1  0  0  0  0
  6  7  2  0  0  0  0
  7  3  1  0  0  0  0
  8 12  1  0  0  0  0
  9 11  2  0  0  0  0
  9  2  1  0  0  0  0
 10  5  1  0  0  0  0
 11 12  1  0  0  0  0
 12 10  1  0  0  0  0
 13  2  2  0  0  0  0
 14  2  2  0  0  0  0
 15  5  2  0  0  0  0
 16  4  1  0  0  0  0
 17  6  1  0  0  0  0
 18  7  1  0  0  0  0
 19 17  2  0  0  0  0
 19 20  1  0  0  0  0
 20 18  2  0  0  0  0
M  END
>  <ID>
7957876

>  <Supplier>
ChemBridge

>  <clogP>
9.320000000000002e-001

>  <RB>
2

>  <tPSA>
6.323999999999997e+001

>  <Hacc>
3

>  <Hdon>
1

>  <LogSw>
-2.386000000000000e+000

>  <Group>
2

>  <Core>
351

$$$$
7957877
 OpenBabel03312015312D

 32 34  0  0  0  0  0  0  0  0999 V2000
    2.0542    0.8875    0.0000 S   0  0  0  0  0  0  0  0  0  0  0  0
    1.6792    1.5375    0.0000 N   0  0  0  0  0  0  0  0  0  0  0  0
    1.6792    4.1292    0.0000 C   0  0  0  0  0  0  0  0  0  0  0  0
    2.0542    2.1875    0.0000 C   0  0  0  0  0  0  0  0  0  0  0  0
    1.6792    2.8375    0.0000 C   0  0  0  0  0  0  0  0  0  0  0  0
    2.0542    3.4875    0.0000 N   0  0  0  0  0  0  0  0  0  0  0  0
    2.7750    1.0833    0.0000 C   0  0  0  0  0  0  0  0  0  0  0  0
    1.3667    0.5708    0.0000 O   0  0  0  0  0  0  0  0  0  0  0  0
    2.3042    0.1833    0.0000 O   0  0  0  0  0  0  0  0  0  0  0  0
    0.9292    1.5375    0.0000 C   0  0  0  0  0  0  0  0  0  0  0  0
    2.0542    4.7792    0.0000 C   0  0  0  0  0  0  0  0  0  0  0  0
    0.9292    4.1292    0.0000 C   0  0  0  0  0  0  0  0  0  0  0  0
    0.9292    2.8375    0.0000 O   0  0  0  0  0  0  0  0  0  0  0  0
    3.3042    0.5583    0.0000 C   0  0  0  0  0  0  0  0  0  0  0  0
    2.9667    1.8083    0.0000 C   0  0  0  0  0  0  0  0  0  0  0  0
    0.5542    2.1875    0.0000 C   0  0  0  0  0  0  0  0  0  0  0  0
    0.5542    0.8875    0.0000 C   0  0  0  0  0  0  0  0  0  0  0  0
   -0.5708    1.5375    0.0000 C   0  0  0  0  0  0  0  0  0  0  0  0
    2.8042    4.7792    0.0000 F   0  0  0  0  0  0  0  0  0  0  0  0
    0.5542    3.4875    0.0000 F   0  0  0  0  0  0  0  0  0  0  0  0
    4.2250    1.4708    0.0000 C   0  0  0  0  0  0  0  0  0  0  0  0
   -0.1958    0.8875    0.0000 C   0  0  0  0  0  0  0  0  0  0  0  0
   -0.1958    2.1875    0.0000 C   0  0  0  0  0  0  0  0  0  0  0  0
    3.6917    2.0000    0.0000 C   0  0  0  0  0  0  0  0  0  0  0  0
    4.0292    0.7458    0.0000 C   0  0  0  0  0  0  0  0  0  0  0  0
   -1.3208    1.5375    0.0000 F   0  0  0  0  0  0  0  0  0  0  0  0
    4.9500    1.6708    0.0000 O   0  0  0  0  0  0  0  0  0  0  0  0
    0.9292    5.4292    0.0000 C   0  0  0  0  0  0  0  0  0  0  0  0
    1.6792    5.4292    0.0000 C   0  0  0  0  0  0  0  0  0  0  0  0
    0.5542    4.7792    0.0000 C   0  0  0  0  0  0  0  0  0  0  0  0
    5.4792    1.1333    0.0000 C   0  0  0  0  0  0  0  0  0  0  0  0
    6.2042    1.3333    0.0000 C   0  0  0  0  0  0  0  0  0  0  0  0
  2  1  1  0  0  0  0
  3  6  1  0  0  0  0
  4  2  1  0  0  0  0
  5  4  1  0  0  0  0
  6  5  1  0  0  0  0
  7  1  1  0  0  0  0
  8  1  2  0  0  0  0
  9  1  2  0  0  0  0
 10  2  1  0  0  0  0
 11  3  1  0  0  0  0
 12  3  2  0  0  0  0
 13  5  2  0  0  0  0
 14  7  2  0  0  0  0
 15  7  1  0  0  0  0
 16 10  2  0  0  0  0
 17 10  1  0  0  0  0
 18 22  1  0  0  0  0
 18 23  2  0  0  0  0
 19 11  1  0  0  0  0
 20 12  1  0  0  0  0
 21 24  1  0  0  0  0
 22 17  2  0  0  0  0
 23 16  1  0  0  0  0
 24 15  2  0  0  0  0
 25 14  1  0  0  0  0
 25 21  2  0  0  0  0
 26 18  1  0  0  0  0
 27 21  1  0  0  0  0
 28 30  2  0  0  0  0
 29 11  2  0  0  0  0
 29 28  1  0  0  0  0
 30 12  1  0  0  0  0
 31 27  1  0  0  0  0
 32 31  1  0  0  0  0
M  END
>  <ID>
7957877

>  <Supplier>
ChemBridge

>  <clogP>
4.196999999999997e+000

>  <RB>
5

>  <tPSA>
7.570999999999999e+001

>  <Hacc>
4

>  <Hdon>
1

>  <LogSw>
-6.170000000000000e+000

>  <Group>
1

>  <Core>
084

$$$$
7957874
 OpenBabel03312015312D

 21 23  0  0  0  0  0  0  0  0999 V2000
    4.9167    3.8208    0.0000 N   0  0  0  0  0  0  0  0  0  0  0  0
    4.4750    3.2208    0.0000 C   0  0  0  0  0  0  0  0  0  0  0  0
    5.6292    3.5958    0.0000 C   0  0  0  0  0  0  0  0  0  0  0  0
    4.9167    2.6083    0.0000 N   0  0  0  0  0  0  0  0  0  0  0  0
    5.6292    2.8458    0.0000 S   0  0  0  0  0  0  0  0  0  0  0  0
    3.7250    3.2208    0.0000 S   0  0  0  0  0  0  0  0  0  0  0  0
    3.3500    2.5708    0.0000 C   0  0  3  0  0  0  0  0  0  0  0  0
    2.6000    2.5708    0.0000 C   0  0  0  0  0  0  0  0  0  0  0  0
    3.7250    1.9208    0.0000 C   0  0  0  0  0  0  0  0  0  0  0  0
    6.2375    4.0250    0.0000 N   0  0  0  0  0  0  0  0  0  0  0  0
    2.2250    3.2208    0.0000 C   0  0  0  0  0  0  0  0  0  0  0  0
    2.2250    1.9208    0.0000 C   0  0  0  0  0  0  0  0  0  0  0  0
    1.1000    2.5708    0.0000 C   0  0  0  0  0  0  0  0  0  0  0  0
    1.4750    3.2208    0.0000 C   0  0  0  0  0  0  0  0  0  0  0  0
    1.4750    1.9208    0.0000 C   0  0  0  0  0  0  0  0  0  0  0  0
    0.3500    2.5708    0.0000 Cl  0  0  0  0  0  0  0  0  0  0  0  0
    3.3500    1.2708    0.0000 C   0  0  0  0  0  0  0  0  0  0  0  0
    4.4750    1.9208    0.0000 C   0  0  0  0  0  0  0  0  0  0  0  0
    3.7250    0.6208    0.0000 C   0  0  0  0  0  0  0  0  0  0  0  0
    4.8500    1.2708    0.0000 C   0  0  0  0  0  0  0  0  0  0  0  0
    4.4750    0.6208    0.0000 C   0  0  0  0  0  0  0  0  0  0  0  0
  2  1  1  0  0  0  0
  3  1  2  0  0  0  0
  4  2  2  0  0  0  0
  5  3  1  0  0  0  0
  5  4  1  0  0  0  0
  6  2  1  0  0  0  0
  7  6  1  0  0  0  0
  8  7  1  0  0  0  0
  9  7  1  0  0  0  0
 10  3  1  0  0  0  0
 11  8  2  0  0  0  0
 12  8  1  0  0  0  0
 13 15  1  0  0  0  0
 14 11  1  0  0  0  0
 14 13  2  0  0  0  0
 15 12  2  0  0  0  0
 16 13  1  0  0  0  0
 17  9  1  0  0  0  0
 18  9  2  0  0  0  0
 19 17  2  0  0  0  0
 19 21  1  0  0  0  0
 20 18  1  0  0  0  0
 21 20  2  0  0  0  0
M  END
>  <ID>
7957874

>  <Supplier>
ChemBridge

>  <clogP>
4.363999999999996e+000

>  <RB>
4

>  <tPSA>
5.180000000000000e+001

>  <Hacc>
2

>  <Hdon>
1

>  <LogSw>
-5.361000000000000e+000

>  <Group>
2

$$$$
7957875
 OpenBabel03312015312D

 20 21  0  0  0  0  0  0  0  0999 V2000
    6.9125    3.2125    0.0000 C   0  0  0  0  0  0  0  0  0  0  0  0
    6.9917    2.4708    0.0000 N   0  0  0  0  0  0  0  0  0  0  0  0
    7.5917    3.5208    0.0000 N   0  0  0  0  0  0  0  0  0  0  0  0
    6.2625    3.5875    0.0000 C   0  0  0  0  0  0  0  0  0  0  0  0
    8.1000    2.9583    0.0000 N   0  0  0  0  0  0  0  0  0  0  0  0
    7.7250    2.3125    0.0000 C   0  0  0  0  0  0  0  0  0  0  0  0
    6.2625    4.3292    0.0000 O   0  0  0  0  0  0  0  0  0  0  0  0
    3.0167    3.2125    0.0000 C   0  0  0  0  0  0  0  0  0  0  0  0
    5.6125    3.2125    0.0000 N   0  0  0  0  0  0  0  0  0  0  0  0
    1.7167    3.2125    0.0000 C   0  0  0  0  0  0  0  0  0  0  0  0
    2.3667    2.0875    0.0000 C   0  0  0  0  0  0  0  0  0  0  0  0
    2.3667    3.5875    0.0000 C   0  0  0  0  0  0  0  0  0  0  0  0
    3.0167    2.4625    0.0000 C   0  0  0  0  0  0  0  0  0  0  0  0
    1.7167    2.4625    0.0000 C   0  0  0  0  0  0  0  0  0  0  0  0
    3.6667    3.5875    0.0000 O   0  0  0  0  0  0  0  0  0  0  0  0
    2.3667    1.3375    0.0000 C   0  0  0  0  0  0  0  0  0  0  0  0
    4.9625    3.5875    0.0000 C   0  0  0  0  0  0  0  0  0  0  0  0
    1.0667    3.5875    0.0000 C   0  0  0  0  0  0  0  0  0  0  0  0
    4.3125    3.2125    0.0000 C   0  0  0  0  0  0  0  0  0  0  0  0
    1.7167    0.9625    0.0000 C   0  0  0  0  0  0  0  0  0  0  0  0
  2  1  1  0  0  0  0
  3  1  2  0  0  0  0
  4  1  1  0  0  0  0
  5  3  1  0  0  0  0
  5  6  1  0  0  0  0
  6  2  2  0  0  0  0
  7  4  2  0  0  0  0
  8 15  1  0  0  0  0
  9  4  1  0  0  0  0
 10 12  2  0  0  0  0
 10 14  1  0  0  0  0
 11 13  1  0  0  0  0
 12  8  1  0  0  0  0
 13  8  2  0  0  0  0
 14 11  2  0  0  0  0
 15 19  1  0  0  0  0
 16 11  1  0  0  0  0
 17  9  1  0  0  0  0
 18 10  1  0  0  0  0
 19 17  1  0  0  0  0
 20 16  1  0  0  0  0
M  END
>  <ID>
7957875

>  <Supplier>
ChemBridge

>  <clogP>
3.095000000000000e+000

>  <RB>
5

>  <tPSA>
7.990000000000001e+001

>  <Hacc>
4

>  <Hdon>
2

>  <LogSw>
-3.844000000000000e+000

>  <Group>
3

>  <Core>
523

$$$$
7973941
 OpenBabel03312015312D

 26 28  0  0  0  0  0  0  0  0999 V2000
    4.4542    2.6083    0.0000 S   0  0  0  0  0  0  0  0  0  0  0  0
    1.8542    4.0917    0.0000 S   0  0  0  0  0  0  0  0  0  0  0  0
    3.8042    2.9833    0.0000 N   0  0  0  0  0  0  0  0  0  0  0  0
    2.5042    3.7333    0.0000 N   0  0  0  0  0  0  0  0  0  0  0  0
    4.9792    3.1333    0.0000 N   0  0  0  0  0  0  0  0  0  0  0  0
    1.3250    3.5833    0.0000 C   0  0  0  0  0  0  0  0  0  0  0  0
    3.1542    2.6083    0.0000 C   0  0  0  0  0  0  0  0  0  0  0  0
    3.8042    3.7333    0.0000 C   0  0  0  0  0  0  0  0  0  0  0  0
    3.1542    4.0917    0.0000 C   0  0  0  0  0  0  0  0  0  0  0  0
    2.5042    2.9833    0.0000 C   0  0  0  0  0  0  0  0  0  0  0  0
    4.0167    1.9875    0.0000 O   0  0  0  0  0  0  0  0  0  0  0  0
    5.0292    2.1208    0.0000 O   0  0  0  0  0  0  0  0  0  0  0  0
    2.2792    4.7125    0.0000 O   0  0  0  0  0  0  0  0  0  0  0  0
    1.2792    4.5792    0.0000 O   0  0  0  0  0  0  0  0  0  0  0  0
    0.6000    3.7708    0.0000 C   0  0  0  0  0  0  0  0  0  0  0  0
    1.5167    2.8500    0.0000 C   0  0  0  0  0  0  0  0  0  0  0  0
    0.2625    2.5208    0.0000 C   0  0  0  0  0  0  0  0  0  0  0  0
    0.9875    2.3208    0.0000 C   0  0  0  0  0  0  0  0  0  0  0  0
    0.0667    3.2375    0.0000 C   0  0  0  0  0  0  0  0  0  0  0  0
   -0.2708    1.9833    0.0000 Cl  0  0  0  0  0  0  0  0  0  0  0  0
    5.6917    2.8958    0.0000 C   0  0  0  0  0  0  0  0  0  0  0  0
    4.7375    3.8458    0.0000 C   0  0  0  0  0  0  0  0  0  0  0  0
    6.3250    3.2958    0.0000 C   0  0  0  0  0  0  0  0  0  0  0  0
    5.1292    4.4667    0.0000 C   0  0  0  0  0  0  0  0  0  0  0  0
    6.4042    4.0250    0.0000 C   0  0  0  0  0  0  0  0  0  0  0  0
    5.8792    4.5542    0.0000 C   0  0  0  0  0  0  0  0  0  0  0  0
  2  4  1  0  0  0  0
  3  1  1  0  0  0  0
  4  9  1  0  0  0  0
  5  1  1  0  0  0  0
  6  2  1  0  0  0  0
  7  3  1  0  0  0  0
  8  3  1  0  0  0  0
  9  8  1  0  0  0  0
 10  7  1  0  0  0  0
 10  4  1  0  0  0  0
 11  1  2  0  0  0  0
 12  1  2  0  0  0  0
 13  2  2  0  0  0  0
 14  2  2  0  0  0  0
 15  6  2  0  0  0  0
 16  6  1  0  0  0  0
 17 18  1  0  0  0  0
 17 19  2  0  0  0  0
 18 16  2  0  0  0  0
 19 15  1  0  0  0  0
 20 17  1  0  0  0  0
 21  5  1  0  0  0  0
 22  5  1  0  0  0  0
 23 21  1  0  0  0  0
 24 22  1  0  0  0  0
 25 23  1  0  0  0  0
 25 26  1  0  0  0  0
 26 24  1  0  0  0  0
M  END
>  <ID>
7973941

>  <Supplier>
ChemBridge

>  <clogP>
3.650000000000000e+000

>  <RB>
1

>  <tPSA>
7.800000000000000e+001

>  <Hacc>
7

>  <Hdon>
0

>  <LogSw>
-5.393000000000000e+000

>  <Group>
2

>  <Core>
172

$$$$
7957871
 OpenBabel03312015312D

 31 33  0  0  0  0  0  0  0  0999 V2000
    1.1417    3.0458    0.0000 S   0  0  0  0  0  0  0  0  0  0  0  0
    1.1417    2.2958    0.0000 N   0  0  0  0  0  0  0  0  0  0  0  0
   -2.2875    3.2958    0.0000 C   0  0  0  0  0  0  0  0  0  0  0  0
   -4.6000    1.8958    0.0000 C   0  0  0  0  0  0  0  0  0  0  0  0
   -3.8750    1.6958    0.0000 C   0  0  0  0  0  0  0  0  0  0  0  0
   -4.7958    2.6208    0.0000 C   0  0  0  0  0  0  0  0  0  0  0  0
   -3.5458    2.9583    0.0000 C   0  0  0  0  0  0  0  0  0  0  0  0
    0.4167    3.2375    0.0000 C   0  0  0  0  0  0  0  0  0  0  0  0
   -3.3458    2.2333    0.0000 C   0  0  0  0  0  0  0  0  0  0  0  0
   -4.2708    3.1458    0.0000 C   0  0  0  0  0  0  0  0  0  0  0  0
   -3.0083    3.4833    0.0000 N   0  0  0  0  0  0  0  0  0  0  0  0
    1.8875    2.9833    0.0000 O   0  0  0  0  0  0  0  0  0  0  0  0
    1.2667    3.7833    0.0000 O   0  0  0  0  0  0  0  0  0  0  0  0
   -1.7583    3.8208    0.0000 N   0  0  0  0  0  0  0  0  0  0  0  0
   -2.0958    2.5625    0.0000 S   0  0  0  0  0  0  0  0  0  0  0  0
    1.1417    0.7958    0.0000 O   0  0  0  0  0  0  0  0  0  0  0  0
    0.2250    3.9625    0.0000 C   0  0  0  0  0  0  0  0  0  0  0  0
   -0.1125    2.7083    0.0000 C   0  0  0  0  0  0  0  0  0  0  0  0
    1.7917    1.9208    0.0000 C   0  0  0  0  0  0  0  0  0  0  0  0
    0.4917    1.9208    0.0000 C   0  0  0  0  0  0  0  0  0  0  0  0
   -1.0333    3.6250    0.0000 C   0  0  0  0  0  0  0  0  0  0  0  0
   -5.1333    1.3625    0.0000 O   0  0  0  0  0  0  0  0  0  0  0  0
   -5.5208    2.8125    0.0000 O   0  0  0  0  0  0  0  0  0  0  0  0
   -3.6833    0.9750    0.0000 O   0  0  0  0  0  0  0  0  0  0  0  0
   -0.5000    4.1500    0.0000 C   0  0  0  0  0  0  0  0  0  0  0  0
   -0.8375    2.9000    0.0000 C   0  0  0  0  0  0  0  0  0  0  0  0
    0.4917    1.1708    0.0000 C   0  0  0  0  0  0  0  0  0  0  0  0
    1.7917    1.1708    0.0000 C   0  0  0  0  0  0  0  0  0  0  0  0
   -5.8583    1.5583    0.0000 C   0  0  0  0  0  0  0  0  0  0  0  0
   -5.7208    3.5333    0.0000 C   0  0  0  0  0  0  0  0  0  0  0  0
   -2.9583    0.7833    0.0000 C   0  0  0  0  0  0  0  0  0  0  0  0
  2  1  1  0  0  0  0
  3 14  1  0  0  0  0
  4  6  2  0  0  0  0
  5  9  2  0  0  0  0
  5  4  1  0  0  0  0
  6 10  1  0  0  0  0
  7 11  1  0  0  0  0
  8  1  1  0  0  0  0
  9  7  1  0  0  0  0
 10  7  2  0  0  0  0
 11  3  1  0  0  0  0
 12  1  2  0  0  0  0
 13  1  2  0  0  0  0
 14 21  1  0  0  0  0
 15  3  2  0  0  0  0
 16 27  1  0  0  0  0
 17  8  1  0  0  0  0
 18  8  2  0  0  0  0
 19  2  1  0  0  0  0
 20  2  1  0  0  0  0
 21 26  2  0  0  0  0
 22  4  1  0  0  0  0
 23  6  1  0  0  0  0
 24  5  1  0  0  0  0
 25 17  2  0  0  0  0
 25 21  1  0  0  0  0
 26 18  1  0  0  0  0
 27 20  1  0  0  0  0
 28 19  1  0  0  0  0
 28 16  1  0  0  0  0
 29 22  1  0  0  0  0
 30 23  1  0  0  0  0
 31 24  1  0  0  0  0
M  END
>  <ID>
7957871

>  <Supplier>
ChemBridge

>  <clogP>
1.076000000000000e+000

>  <RB>
3

>  <tPSA>
9.836000000000000e+001

>  <Hacc>
7

>  <Hdon>
2

>  <LogSw>
-3.527000000000000e+000

>  <Group>
2

>  <Core>
234

$$$$
7973949
 OpenBabel03312015312D

 26 29  0  0  0  0  0  0  0  0999 V2000
    3.9500    2.4458    0.0000 C   0  0  0  0  0  0  0  0  0  0  0  0
    3.5042    3.0500    0.0000 N   0  0  0  0  0  0  0  0  0  0  0  0
    4.7000    2.4458    0.0000 C   0  0  0  0  0  0  0  0  0  0  0  0
    5.8250    1.7958    0.0000 C   0  0  0  0  0  0  0  0  0  0  0  0
    3.5042    1.8375    0.0000 N   0  0  0  0  0  0  0  0  0  0  0  0
    6.2000    1.1458    0.0000 C   0  0  0  0  0  0  0  0  0  0  0  0
    5.0750    1.7958    0.0000 C   0  0  0  0  0  0  0  0  0  0  0  0
    6.9500    1.1458    0.0000 O   0  0  0  0  0  0  0  0  0  0  0  0
    2.7917    2.8208    0.0000 C   0  0  0  0  0  0  0  0  0  0  0  0
    2.7917    2.0708    0.0000 C   0  0  0  0  0  0  0  0  0  0  0  0
    6.2000    2.4458    0.0000 C   0  0  0  0  0  0  0  0  0  0  0  0
    5.0750    3.0958    0.0000 C   0  0  0  0  0  0  0  0  0  0  0  0
    7.3250    1.7958    0.0000 C   0  0  0  0  0  0  0  0  0  0  0  0
    5.4500    3.7458    0.0000 N   0  0  0  0  0  0  0  0  0  0  0  0
    6.9500    2.4458    0.0000 C   0  0  0  0  0  0  0  0  0  0  0  0
    2.1417    3.1958    0.0000 C   0  0  0  0  0  0  0  0  0  0  0  0
    2.1417    1.6958    0.0000 C   0  0  0  0  0  0  0  0  0  0  0  0
    1.4917    2.8208    0.0000 C   0  0  0  0  0  0  0  0  0  0  0  0
    1.4917    2.0708    0.0000 C   0  0  0  0  0  0  0  0  0  0  0  0
    5.8250    0.4958    0.0000 O   0  0  0  0  0  0  0  0  0  0  0  0
    8.0750    1.7958    0.0000 C   0  0  0  0  0  0  0  0  0  0  0  0
    7.3250    3.0958    0.0000 C   0  0  0  0  0  0  0  0  0  0  0  0
    0.8417    1.6958    0.0000 C   0  0  0  0  0  0  0  0  0  0  0  0
    0.8417    3.1958    0.0000 C   0  0  0  0  0  0  0  0  0  0  0  0
    8.0750    3.0958    0.0000 C   0  0  0  0  0  0  0  0  0  0  0  0
    8.4500    2.4458    0.0000 C   0  0  0  0  0  0  0  0  0  0  0  0
  2  1  2  0  0  0  0
  3  1  1  0  0  0  0
  4  7  1  0  0  0  0
  5  1  1  0  0  0  0
  6  4  1  0  0  0  0
  7  3  2  0  0  0  0
  8  6  1  0  0  0  0
  8 13  1  0  0  0  0
  9  2  1  0  0  0  0
  9 10  1  0  0  0  0
 10  5  1  0  0  0  0
 11  4  2  0  0  0  0
 12  3  1  0  0  0  0
 13 15  1  0  0  0  0
 14 12  3  0  0  0  0
 15 11  1  0  0  0  0
 16  9  2  0  0  0  0
 17 10  2  0  0  0  0
 18 16  1  0  0  0  0
 18 19  2  0  0  0  0
 19 17  1  0  0  0  0
 20  6  2  0  0  0  0
 21 13  2  0  0  0  0
 22 15  2  0  0  0  0
 23 19  1  0  0  0  0
 24 18  1  0  0  0  0
 25 22  1  0  0  0  0
 26 25  2  0  0  0  0
 26 21  1  0  0  0  0
M  END
>  <ID>
7973949

>  <Supplier>
ChemBridge

>  <clogP>
3.098000000000000e+000

>  <RB>
2

>  <tPSA>
8.268000000000001e+001

>  <Hacc>
4

>  <Hdon>
1

>  <LogSw>
-4.600000000000000e+000

>  <Group>
1

>  <Core>
112

$$$$
7957878
 OpenBabel03312015312D

 20 21  0  0  0  0  0  0  0  0999 V2000
    6.3375    1.1833    0.0000 C   0  0  0  0  0  0  0  0  0  0  0  0
    5.5875    1.1833    0.0000 C   0  0  0  0  0  0  0  0  0  0  0  0
    6.7125    0.5333    0.0000 C   0  0  0  0  0  0  0  0  0  0  0  0
    5.2125    0.5333    0.0000 N   0  0  0  0  0  0  0  0  0  0  0  0
    4.4750    0.6583    0.0000 C   0  0  0  0  0  0  0  0  0  0  0  0
    7.4625    0.5333    0.0000 O   0  0  0  0  0  0  0  0  0  0  0  0
    4.2167    1.3625    0.0000 O   0  0  0  0  0  0  0  0  0  0  0  0
    3.9917    0.0833    0.0000 C   0  0  0  0  0  0  0  0  0  0  0  0
    6.4500    0.0750    0.0000 O   0  0  0  0  0  0  0  0  0  0  0  0
    3.2875    0.3458    0.0000 C   0  0  0  0  0  0  0  0  0  0  0  0
    1.8792    0.8583    0.0000 C   0  0  0  0  0  0  0  0  0  0  0  0
    1.1750    1.1125    0.0000 Br  0  0  0  0  0  0  0  0  0  0  0  0
    6.7125    1.8333    0.0000 C   0  0  0  0  0  0  0  0  0  0  0  0
    2.0042    0.1208    0.0000 C   0  0  0  0  0  0  0  0  0  0  0  0
    2.4542    1.3375    0.0000 C   0  0  0  0  0  0  0  0  0  0  0  0
    2.7125   -0.1417    0.0000 C   0  0  0  0  0  0  0  0  0  0  0  0
    3.1542    1.0833    0.0000 C   0  0  0  0  0  0  0  0  0  0  0  0
    5.2125    1.8333    0.0000 C   0  0  0  0  0  0  0  0  0  0  0  0
    6.3375    2.4833    0.0000 C   0  0  0  0  0  0  0  0  0  0  0  0
    5.5875    2.4833    0.0000 C   0  0  0  0  0  0  0  0  0  0  0  0
  2  1  1  0  0  0  0
  3  1  1  0  0  0  0
  4  2  1  0  0  0  0
  5  4  1  0  0  0  0
  6  3  2  0  0  0  0
  7  5  2  0  0  0  0
  8  5  1  0  0  0  0
  9  3  1  0  0  0  0
 10  8  1  0  0  0  0
 11 15  1  0  0  0  0
 11 14  2  0  0  0  0
 12 11  1  0  0  0  0
 13  1  2  0  0  0  0
 14 16  1  0  0  0  0
 15 17  2  0  0  0  0
 16 10  2  0  0  0  0
 17 10  1  0  0  0  0
 18  2  2  0  0  0  0
 19 13  1  0  0  0  0
 20 19  2  0  0  0  0
 20 18  1  0  0  0  0
M  END
>  <ID>
7957878

>  <Supplier>
ChemBridge

>  <clogP>
4.229000000000000e+000

>  <RB>
4

>  <tPSA>
6.640000000000001e+001

>  <Hacc>
3

>  <Hdon>
2

>  <LogSw>
-5.248000000000000e+000

>  <Group>
1

>  <Core>
144

$$$$
7941445
 OpenBabel03312015312D

 32 34  0  0  0  0  0  0  0  0999 V2000
    3.0042    1.0958    0.0000 S   0  0  0  0  0  0  0  0  0  0  0  0
    9.8667    1.5875    0.0000 S   0  0  0  0  0  0  0  0  0  0  0  0
    2.6292    1.7458    0.0000 N   0  0  0  0  0  0  0  0  0  0  0  0
    6.4375    1.3458    0.0000 C   0  0  0  0  0  0  0  0  0  0  0  0
    1.8792    1.7458    0.0000 C   0  0  0  0  0  0  0  0  0  0  0  0
    3.7292    1.2875    0.0000 C   0  0  0  0  0  0  0  0  0  0  0  0
    5.9042    1.8708    0.0000 N   0  0  0  0  0  0  0  0  0  0  0  0
    9.3292    2.1208    0.0000 N   0  0  0  0  0  0  0  0  0  0  0  0
    2.3292    0.7750    0.0000 O   0  0  0  0  0  0  0  0  0  0  0  0
    3.2667    0.3875    0.0000 O   0  0  0  0  0  0  0  0  0  0  0  0
   10.5167    1.9625    0.0000 O   0  0  0  0  0  0  0  0  0  0  0  0
    9.2917    1.1083    0.0000 O   0  0  0  0  0  0  0  0  0  0  0  0
    7.1625    1.5333    0.0000 C   0  0  0  0  0  0  0  0  0  0  0  0
    1.5042    2.3958    0.0000 C   0  0  0  0  0  0  0  0  0  0  0  0
    1.5042    1.0958    0.0000 C   0  0  0  0  0  0  0  0  0  0  0  0
    6.2417    0.6208    0.0000 O   0  0  0  0  0  0  0  0  0  0  0  0
    4.2625    0.7583    0.0000 C   0  0  0  0  0  0  0  0  0  0  0  0
    3.9292    2.0208    0.0000 C   0  0  0  0  0  0  0  0  0  0  0  0
    7.6917    1.0083    0.0000 C   0  0  0  0  0  0  0  0  0  0  0  0
    7.3542    2.2583    0.0000 C   0  0  0  0  0  0  0  0  0  0  0  0
    5.1792    1.6750    0.0000 C   0  0  0  0  0  0  0  0  0  0  0  0
    0.7542    2.3958    0.0000 C   0  0  0  0  0  0  0  0  0  0  0  0
    8.6042    1.9208    0.0000 C   0  0  0  0  0  0  0  0  0  0  0  0
   10.2917    0.9708    0.0000 C   0  0  0  0  0  0  0  0  0  0  0  0
    0.7542    1.0958    0.0000 C   0  0  0  0  0  0  0  0  0  0  0  0
    4.6500    2.2083    0.0000 C   0  0  0  0  0  0  0  0  0  0  0  0
    4.9875    0.9500    0.0000 C   0  0  0  0  0  0  0  0  0  0  0  0
    8.0792    2.4583    0.0000 C   0  0  0  0  0  0  0  0  0  0  0  0
    8.4167    1.1958    0.0000 C   0  0  0  0  0  0  0  0  0  0  0  0
    0.3792    1.7458    0.0000 C   0  0  0  0  0  0  0  0  0  0  0  0
    1.8792    3.0458    0.0000 C   0  0  0  0  0  0  0  0  0  0  0  0
    0.3792    0.4458    0.0000 C   0  0  0  0  0  0  0  0  0  0  0  0
  2  8  1  0  0  0  0
  3  1  1  0  0  0  0
  4  7  1  0  0  0  0
  5  3  1  0  0  0  0
  6  1  1  0  0  0  0
  7 21  1  0  0  0  0
  8 23  1  0  0  0  0
  9  1  2  0  0  0  0
 10  1  2  0  0  0  0
 11  2  2  0  0  0  0
 12  2  2  0  0  0  0
 13  4  1  0  0  0  0
 14  5  1  0  0  0  0
 15  5  2  0  0  0  0
 16  4  2  0  0  0  0
 17  6  2  0  0  0  0
 18  6  1  0  0  0  0
 19 13  1  0  0  0  0
 20 13  2  0  0  0  0
 21 26  1  0  0  0  0
 22 14  2  0  0  0  0
 23 28  2  0  0  0  0
 24  2  1  0  0  0  0
 25 15  1  0  0  0  0
 26 18  2  0  0  0  0
 27 17  1  0  0  0  0
 27 21  2  0  0  0  0
 28 20  1  0  0  0  0
 29 19  2  0  0  0  0
 29 23  1  0  0  0  0
 30 25  2  0  0  0  0
 30 22  1  0  0  0  0
 31 14  1  0  0  0  0
 32 25  1  0  0  0  0
M  END
>  <ID>
7941445

>  <Supplier>
ChemBridge

>  <clogP>
2.881000000000000e+000

>  <RB>
5

>  <tPSA>
1.214400000000000e+002

>  <Hacc>
5

>  <Hdon>
3

>  <LogSw>
-5.111999999999998e+000

>  <Group>
1

>  <Core>
152

$$$$
5846994
 OpenBabel03312015312D

 27 29  0  0  0  0  0  0  0  0999 V2000
   10.7042   -2.3292    0.0000 C   0  0  0  0  0  0  0  0  0  0  0  0
    5.4167   -5.3500    0.0000 N   0  0  0  0  0  0  0  0  0  0  0  0
   10.7042   -5.3500    0.0000 N   0  0  0  0  0  0  0  0  0  0  0  0
   -2.8500   -0.7042    0.0000 C   0  0  0  0  0  0  0  0  0  0  0  0
   -2.8500    2.0708    0.0000 C   0  0  0  0  0  0  0  0  0  0  0  0
    8.1042   -0.8042    0.0000 C   0  0  0  0  0  0  0  0  0  0  0  0
    5.4167   -2.3292    0.0000 C   0  0  0  0  0  0  0  0  0  0  0  0
   -5.3208   -2.0667    0.0000 S   0  0  0  0  0  0  0  0  0  0  0  0
   -7.8792    2.0708    0.0000 C   0  0  0  0  0  0  0  0  0  0  0  0
   13.3667   -0.8042    0.0000 C   0  0  0  0  0  0  0  0  0  0  0  0
   -7.8792   -0.7042    0.0000 C   0  0  0  0  0  0  0  0  0  0  0  0
   -0.2208   -2.1375    0.0000 N   0  0  0  0  0  0  0  0  0  0  0  0
    2.5542   -6.7500    0.0000 C   0  0  0  0  0  0  0  0  0  0  0  0
   -0.2208   -5.1542    0.0000 C   0  0  0  0  0  0  0  0  0  0  0  0
   -0.1333    3.6083    0.0000 C   0  0  0  0  0  0  0  0  0  0  0  0
    2.5875    5.1167    0.0000 N   0  0  0  0  0  0  0  0  0  0  0  0
    8.1042    2.3333    0.0000 Br  0  0  0  0  0  0  0  0  0  0  0  0
   -2.9208   -6.6500    0.0000 O   0  0  0  0  0  0  0  0  0  0  0  0
   16.0000    0.7125    0.0000 F   0  0  0  0  0  0  0  0  0  0  0  0
   11.8042    1.8833    0.0000 F   0  0  0  0  0  0  0  0  0  0  0  0
   14.9167   -3.5000    0.0000 F   0  0  0  0  0  0  0  0  0  0  0  0
    2.6875   -0.8667    0.0000 C   0  0  0  0  0  0  0  0  0  0  0  0
  -10.1167    3.7333    0.0000 C   0  0  0  0  0  0  0  0  0  0  0  0
  -10.4042   -2.2000    0.0000 C   0  0  0  0  0  0  0  0  0  0  0  0
  -12.9375    3.1833    0.0000 C   0  0  0  0  0  0  0  0  0  0  0  0
  -12.8792   -1.4542    0.0000 C   0  0  0  0  0  0  0  0  0  0  0  0
  -14.1042    0.6833    0.0000 C   0  0  0  0  0  0  0  0  0  0  0  0
  2  3  1  0  0  0  0
  2  7  1  0  0  0  0
  3  1  2  0  0  0  0
  4 12  1  0  0  0  0
  5  4  2  0  0  0  0
  6  1  1  0  0  0  0
  7  6  2  0  0  0  0
  8  4  1  0  0  0  0
  9  5  1  0  0  0  0
 10  1  1  0  0  0  0
 11  8  1  0  0  0  0
 11  9  2  0  0  0  0
 12 14  1  0  0  0  0
 13  2  1  0  0  0  0
 14 13  1  0  0  0  0
 15  5  1  0  0  0  0
 16 15  3  0  0  0  0
 17  6  1  0  0  0  0
 18 14  2  0  0  0  0
 19 10  1  0  0  0  0
 20 10  1  0  0  0  0
 21 10  1  0  0  0  0
 22  7  1  0  0  0  0
 23  9  1  0  0  0  0
 24 11  1  0  0  0  0
 25 23  1  0  0  0  0
 25 27  1  0  0  0  0
 26 24  1  0  0  0  0
 27 26  1  0  0  0  0
M  END
>  <ID>
5846994

>  <Supplier>
ChemBridge

>  <clogP>
4.819999999999999e+000

>  <RB>
3

>  <tPSA>
7.070999999999999e+001

>  <Hacc>
4

>  <Hdon>
1

>  <LogSw>
-6.944000000000000e+000

>  <Group>
1

>  <Core>
129

$$$$
7941441
 OpenBabel03312015312D

 18 20  0  0  0  0  0  0  0  0999 V2000
    2.9667    1.4958    0.0000 N   0  0  0  0  0  0  0  0  0  0  0  0
    2.9667    2.2458    0.0000 N   0  0  0  0  0  0  0  0  0  0  0  0
    2.3167    1.1208    0.0000 C   0  0  0  0  0  0  0  0  0  0  0  0
    2.3167    2.6208    0.0000 N   0  0  0  0  0  0  0  0  0  0  0  0
    1.6667    1.4958    0.0000 C   0  0  0  0  0  0  0  0  0  0  0  0
    1.6667    2.2458    0.0000 C   0  0  0  0  0  0  0  0  0  0  0  0
    3.6167    1.1208    0.0000 C   0  0  0  0  0  0  0  0  0  0  0  0
    2.3167    0.3708    0.0000 O   0  0  0  0  0  0  0  0  0  0  0  0
    1.0167    1.1208    0.0000 C   0  0  0  0  0  0  0  0  0  0  0  0
    4.2667    1.4958    0.0000 C   0  0  0  0  0  0  0  0  0  0  0  0
    1.0167    2.6208    0.0000 C   0  0  0  0  0  0  0  0  0  0  0  0
    4.9167    1.1208    0.0000 C   0  0  0  0  0  0  0  0  0  0  0  0
    4.2667    2.2458    0.0000 C   0  0  0  0  0  0  0  0  0  0  0  0
    0.3667    1.4958    0.0000 C   0  0  0  0  0  0  0  0  0  0  0  0
    0.3667    2.2458    0.0000 C   0  0  0  0  0  0  0  0  0  0  0  0
    4.9167    2.6208    0.0000 C   0  0  0  0  0  0  0  0  0  0  0  0
    5.5667    1.4958    0.0000 C   0  0  0  0  0  0  0  0  0  0  0  0
    5.5667    2.2458    0.0000 C   0  0  0  0  0  0  0  0  0  0  0  0
  2  1  1  0  0  0  0
  3  1  1  0  0  0  0
  4  2  2  0  0  0  0
  4  6  1  0  0  0  0
  5  3  1  0  0  0  0
  6  5  1  0  0  0  0
  7  1  1  0  0  0  0
  8  3  2  0  0  0  0
  9  5  2  0  0  0  0
 10  7  1  0  0  0  0
 11  6  2  0  0  0  0
 12 10  2  0  0  0  0
 13 10  1  0  0  0  0
 14  9  1  0  0  0  0
 15 14  2  0  0  0  0
 15 11  1  0  0  0  0
 16 13  2  0  0  0  0
 17 12  1  0  0  0  0
 18 16  1  0  0  0  0
 18 17  2  0  0  0  0
M  END
>  <ID>
7941441

>  <Supplier>
ChemBridge

>  <clogP>
2.602000000000000e+000

>  <RB>
2

>  <tPSA>
4.778000000000000e+001

>  <Hacc>
3

>  <Hdon>
0

>  <LogSw>
-3.153000000000000e+000

>  <Group>
2

>  <Core>
541

$$$$
5846990
 OpenBabel03312015312D

 23 25  0  0  0  0  0  0  0  0999 V2000
    2.1542   -2.0250    0.0000 C   0  0  0  0  0  0  0  0  0  0  0  0
    1.4667   -2.3292    0.0000 N   0  0  0  0  0  0  0  0  0  0  0  0
    2.0667   -1.2792    0.0000 O   0  0  0  0  0  0  0  0  0  0  0  0
    1.3417   -1.1250    0.0000 C   0  0  0  0  0  0  0  0  0  0  0  0
    0.9667   -1.7750    0.0000 C   0  0  0  0  0  0  0  0  0  0  0  0
    4.1042   -2.3917    0.0000 C   0  0  0  0  0  0  0  0  0  0  0  0
    2.8042   -2.3917    0.0000 C   0  0  0  0  0  0  0  0  0  0  0  0
    4.7542   -2.0167    0.0000 N   0  0  0  0  0  0  0  0  0  0  0  0
    3.4542   -2.0167    0.0000 C   0  0  0  0  0  0  0  0  0  0  0  0
    5.4042   -2.3917    0.0000 C   0  0  0  0  0  0  0  0  0  0  0  0
    4.1042   -3.1500    0.0000 C   0  0  0  0  0  0  0  0  0  0  0  0
    0.9625   -0.4750    0.0000 C   0  0  0  0  0  0  0  0  0  0  0  0
    2.8042   -3.1500    0.0000 C   0  0  0  0  0  0  0  0  0  0  0  0
    5.4042   -3.1417    0.0000 O   0  0  0  0  0  0  0  0  0  0  0  0
    0.2167   -1.7792    0.0000 C   0  0  0  0  0  0  0  0  0  0  0  0
    3.4542   -3.5250    0.0000 C   0  0  0  0  0  0  0  0  0  0  0  0
    0.2125   -0.4792    0.0000 C   0  0  0  0  0  0  0  0  0  0  0  0
    4.7542   -3.5250    0.0000 Cl  0  0  0  0  0  0  0  0  0  0  0  0
   -0.1583   -1.1292    0.0000 C   0  0  0  0  0  0  0  0  0  0  0  0
    6.0542   -2.0167    0.0000 C   0  0  0  0  0  0  0  0  0  0  0  0
   -0.1625    0.1708    0.0000 C   0  0  0  0  0  0  0  0  0  0  0  0
    6.0542   -1.2667    0.0000 C   0  0  0  0  0  0  0  0  0  0  0  0
    6.7042   -0.8917    0.0000 C   0  0  0  0  0  0  0  0  0  0  0  0
  2  1  2  0  0  0  0
  3  1  1  0  0  0  0
  4  3  1  0  0  0  0
  5  2  1  0  0  0  0
  5  4  2  0  0  0  0
  6  9  1  0  0  0  0
  6 11  2  0  0  0  0
  7  1  1  0  0  0  0
  8  6  1  0  0  0  0
  9  7  2  0  0  0  0
 10  8  1  0  0  0  0
 11 16  1  0  0  0  0
 12  4  1  0  0  0  0
 13  7  1  0  0  0  0
 14 10  2  0  0  0  0
 15  5  1  0  0  0  0
 16 13  2  0  0  0  0
 17 12  2  0  0  0  0
 18 11  1  0  0  0  0
 19 15  2  0  0  0  0
 19 17  1  0  0  0  0
 20 10  1  0  0  0  0
 21 17  1  0  0  0  0
 22 20  1  0  0  0  0
 23 22  1  0  0  0  0
M  END
>  <ID>
5846990

>  <Supplier>
ChemBridge

>  <clogP>
4.260000000000000e+000

>  <RB>
2

>  <tPSA>
5.513000000000000e+001

>  <Hacc>
3

>  <Hdon>
1

>  <LogSw>
-5.236000000000002e+000

>  <Group>
3

>  <Core>
068

$$$$
7884102
 OpenBabel03312015312D

 24 26  0  0  0  0  0  0  0  0999 V2000
    0.7167    2.0833    0.0000 S   0  0  0  0  0  0  0  0  0  0  0  0
    3.9792    2.8000    0.0000 N   0  0  0  0  0  0  0  0  0  0  0  0
    4.7292    2.7208    0.0000 C   0  0  0  0  0  0  0  0  0  0  0  0
    3.8292    3.5333    0.0000 C   0  0  0  0  0  0  0  0  0  0  0  0
    5.1042    2.0708    0.0000 C   0  0  0  0  0  0  0  0  0  0  0  0
    4.4750    3.9083    0.0000 S   0  0  0  0  0  0  0  0  0  0  0  0
    5.0292    3.4083    0.0000 C   0  0  0  0  0  0  0  0  0  0  0  0
    4.7292    1.4208    0.0000 C   0  0  0  0  0  0  0  0  0  0  0  0
    1.3167    2.5208    0.0000 C   0  0  0  0  0  0  0  0  0  0  0  0
    3.1417    3.8375    0.0000 N   0  0  0  0  0  0  0  0  0  0  0  0
    5.1042    0.7750    0.0000 C   0  0  0  0  0  0  0  0  0  0  0  0
    0.1292    2.5458    0.0000 O   0  0  0  0  0  0  0  0  0  0  0  0
    0.1917    1.5375    0.0000 O   0  0  0  0  0  0  0  0  0  0  0  0
    5.8542    2.0708    0.0000 C   0  0  0  0  0  0  0  0  0  0  0  0
    1.2042    1.5083    0.0000 N   0  0  0  0  0  0  0  0  0  0  0  0
    2.0042    2.2125    0.0000 C   0  0  0  0  0  0  0  0  0  0  0  0
    1.2417    3.2708    0.0000 C   0  0  0  0  0  0  0  0  0  0  0  0
    5.8542    0.7750    0.0000 C   0  0  0  0  0  0  0  0  0  0  0  0
    2.5375    3.3958    0.0000 C   0  0  0  0  0  0  0  0  0  0  0  0
    3.9792    1.4208    0.0000 Cl  0  0  0  0  0  0  0  0  0  0  0  0
    6.2292    1.4208    0.0000 C   0  0  0  0  0  0  0  0  0  0  0  0
    1.8500    3.7083    0.0000 C   0  0  0  0  0  0  0  0  0  0  0  0
    2.6125    2.6500    0.0000 C   0  0  0  0  0  0  0  0  0  0  0  0
    6.2292    0.1250    0.0000 Cl  0  0  0  0  0  0  0  0  0  0  0  0
  2  4  2  0  0  0  0
  3  2  1  0  0  0  0
  4 10  1  0  0  0  0
  5  3  1  0  0  0  0
  6  4  1  0  0  0  0
  7  6  1  0  0  0  0
  7  3  2  0  0  0  0
  8  5  1  0  0  0  0
  9  1  1  0  0  0  0
 10 19  1  0  0  0  0
 11  8  2  0  0  0  0
 11 18  1  0  0  0  0
 12  1  2  0  0  0  0
 13  1  2  0  0  0  0
 14  5  2  0  0  0  0
 15  1  1  0  0  0  0
 16  9  2  0  0  0  0
 17  9  1  0  0  0  0
 18 21  2  0  0  0  0
 19 22  1  0  0  0  0
 20  8  1  0  0  0  0
 21 14  1  0  0  0  0
 22 17  2  0  0  0  0
 23 16  1  0  0  0  0
 23 19  2  0  0  0  0
 24 18  1  0  0  0  0
M  END
>  <ID>
7884102

>  <Supplier>
ChemBridge

>  <clogP>
4.538000000000000e+000

>  <RB>
4

>  <tPSA>
8.508000000000001e+001

>  <Hacc>
4

>  <Hdon>
2

>  <LogSw>
-5.994000000000000e+000

>  <Group>
2

>  <Core>
225

$$$$
7941449
 OpenBabel03312015312D

 39 44  0  0  0  0  0  0  0  0999 V2000
    7.9000   -7.7667    0.0000 C   0  0  0  0  0  0  0  0  0  0  0  0
    7.9042   -8.6000    0.0000 C   0  0  0  0  0  0  0  0  0  0  0  0
    9.1792   -8.1667    0.0000 N   0  0  0  0  0  0  0  0  0  0  0  0
    8.6917   -8.8417    0.0000 N   0  0  0  0  0  0  0  0  0  0  0  0
    8.6917   -7.5125    0.0000 C   0  0  0  0  0  0  0  0  0  0  0  0
    5.0667   -8.5375    0.0000 S   0  0  0  0  0  0  0  0  0  0  0  0
    2.1292   -6.1792    0.0000 C   0  0  3  0  0  0  0  0  0  0  0  0
    5.0667   -7.7042    0.0000 N   0  0  0  0  0  0  0  0  0  0  0  0
    7.2250   -7.2875    0.0000 N   0  0  0  0  0  0  0  0  0  0  0  0
    5.7875   -7.2875    0.0000 C   0  0  0  0  0  0  0  0  0  0  0  0
    6.5042   -7.7042    0.0000 C   0  0  0  0  0  0  0  0  0  0  0  0
    7.2417   -9.0875    0.0000 O   0  0  0  0  0  0  0  0  0  0  0  0
    2.9125   -6.4625    0.0000 C   0  0  0  0  0  0  0  0  0  0  0  0
    1.5917   -6.8667    0.0000 C   0  0  0  0  0  0  0  0  0  0  0  0
    1.3875   -6.3667    0.0000 C   0  0  0  0  0  0  0  0  0  0  0  0
    2.1417   -5.3667    0.0000 C   0  0  0  0  0  0  0  0  0  0  0  0
    5.8667   -8.7500    0.0000 O   0  0  0  0  0  0  0  0  0  0  0  0
    5.4792   -9.2542    0.0000 O   0  0  0  0  0  0  0  0  0  0  0  0
    4.3500   -7.2917    0.0000 C   0  0  0  0  0  0  0  0  0  0  0  0
    8.9542   -9.6292    0.0000 C   0  0  0  0  0  0  0  0  0  0  0  0
    1.3917   -5.0542    0.0000 C   0  0  3  0  0  0  0  0  0  0  0  0
    0.8417   -6.5667    0.0000 C   0  0  3  0  0  0  0  0  0  0  0  0
    0.6792   -6.1042    0.0000 C   0  0  3  0  0  0  0  0  0  0  0  0
    6.5042   -8.5292    0.0000 O   0  0  0  0  0  0  0  0  0  0  0  0
    3.6292   -6.0417    0.0000 C   0  0  0  0  0  0  0  0  0  0  0  0
    2.9125   -7.2917    0.0000 C   0  0  0  0  0  0  0  0  0  0  0  0
    3.6292   -7.7042    0.0000 C   0  0  0  0  0  0  0  0  0  0  0  0
    4.3500   -6.4542    0.0000 C   0  0  0  0  0  0  0  0  0  0  0  0
    0.0375   -6.7917    0.0000 C   0  0  0  0  0  0  0  0  0  0  0  0
    0.6667   -5.3125    0.0000 C   0  0  0  0  0  0  0  0  0  0  0  0
    0.8375   -5.7167    0.0000 C   0  0  0  0  0  0  0  0  0  0  0  0
   10.0000   -8.1667    0.0000 C   0  0  0  0  0  0  0  0  0  0  0  0
    4.3542   -8.9500    0.0000 C   0  0  0  0  0  0  0  0  0  0  0  0
    8.9375   -6.7167    0.0000 C   0  0  0  0  0  0  0  0  0  0  0  0
    8.4000  -10.2542    0.0000 C   0  0  0  0  0  0  0  0  0  0  0  0
    9.7667   -9.8042    0.0000 C   0  0  0  0  0  0  0  0  0  0  0  0
   10.0167  -10.5792    0.0000 C   0  0  0  0  0  0  0  0  0  0  0  0
    8.6625  -11.0417    0.0000 C   0  0  0  0  0  0  0  0  0  0  0  0
    9.4750  -11.2042    0.0000 C   0  0  0  0  0  0  0  0  0  0  0  0
  2  1  1  0  0  0  0
  3  5  1  0  0  0  0
  3  4  1  0  0  0  0
  4  2  1  0  0  0  0
  5  1  2  0  0  0  0
  6  8  1  0  0  0  0
  7 13  1  0  0  0  0
  8 10  1  0  0  0  0
  9  1  1  0  0  0  0
 10 11  1  0  0  0  0
 11  9  1  0  0  0  0
 12  2  2  0  0  0  0
 13 25  1  0  0  0  0
 13 26  2  0  0  0  0
 14  7  1  0  0  0  0
 15  7  1  0  0  0  0
 16  7  1  0  0  0  0
 17  6  2  0  0  0  0
 18  6  2  0  0  0  0
 19  8  1  0  0  0  0
 20  4  1  0  0  0  0
 21 16  1  0  0  0  0
 22 14  1  0  0  0  0
 22 31  1  0  0  0  0
 22 29  1  0  0  0  0
 23 15  1  0  0  0  0
 23 30  1  0  0  0  0
 24 11  2  0  0  0  0
 25 28  2  0  0  0  0
 26 27  1  0  0  0  0
 27 19  2  0  0  0  0
 28 19  1  0  0  0  0
 29 23  1  0  0  0  0
 30 21  1  0  0  0  0
 31 21  1  0  0  0  0
 32  3  1  0  0  0  0
 33  6  1  0  0  0  0
 34  5  1  0  0  0  0
 35 20  1  0  0  0  0
 36 20  2  0  0  0  0
 37 36  1  0  0  0  0
 38 35  2  0  0  0  0
 38 39  1  0  0  0  0
 39 37  2  0  0  0  0
M  END
>  <ID>
7941449

>  <Supplier>
ChemBridge

>  <clogP>
3.175000000000000e+000

>  <RB>
6

>  <tPSA>
9.341000000000000e+001

>  <Hacc>
4

>  <Hdon>
1

>  <LogSw>
-5.910000000000000e+000

>  <Group>
1

>  <Core>
084

$$$$
5846998
 OpenBabel03312015312D

 21 22  0  0  0  0  0  0  0  0999 V2000
    1.5167   -3.1042    0.0000 C   0  0  0  0  0  0  0  0  0  0  0  0
    2.2375   -2.7000    0.0000 N   0  0  0  0  0  0  0  0  0  0  0  0
    3.6542   -1.8667    0.0000 N   0  0  0  0  0  0  0  0  0  0  0  0
    4.3792   -1.4542    0.0000 C   0  0  0  0  0  0  0  0  0  0  0  0
    0.9000   -2.7500    0.0000 C   0  0  0  0  0  0  0  0  0  0  0  0
    2.2375   -1.8667    0.0000 C   0  0  0  0  0  0  0  0  0  0  0  0
    2.9500   -3.1042    0.0000 C   0  0  0  0  0  0  0  0  0  0  0  0
    3.6667   -2.7000    0.0000 C   0  0  0  0  0  0  0  0  0  0  0  0
    2.9500   -1.4542    0.0000 C   0  0  0  0  0  0  0  0  0  0  0  0
    1.5167   -4.1542    0.0000 O   0  0  0  0  0  0  0  0  0  0  0  0
    4.3042   -0.9500    0.0000 C   0  0  0  0  0  0  0  0  0  0  0  0
    5.3667   -1.8292    0.0000 O   0  0  0  0  0  0  0  0  0  0  0  0
    0.2167   -3.1500    0.0000 C   0  0  0  0  0  0  0  0  0  0  0  0
    0.9000   -1.9375    0.0000 C   0  0  0  0  0  0  0  0  0  0  0  0
   -0.4708   -1.9375    0.0000 C   0  0  0  0  0  0  0  0  0  0  0  0
   -0.4708   -2.7500    0.0000 C   0  0  0  0  0  0  0  0  0  0  0  0
    0.2167   -1.5500    0.0000 C   0  0  0  0  0  0  0  0  0  0  0  0
   -1.1333   -1.5500    0.0000 F   0  0  0  0  0  0  0  0  0  0  0  0
    4.7000   -0.5875    0.0000 C   0  0  0  0  0  0  0  0  0  0  0  0
    4.5875    0.1833    0.0000 C   0  0  0  0  0  0  0  0  0  0  0  0
    5.7000   -0.9667    0.0000 C   0  0  0  0  0  0  0  0  0  0  0  0
  2  1  1  0  0  0  0
  3  8  1  0  0  0  0
  3  9  1  0  0  0  0
  4  3  1  0  0  0  0
  5  1  1  0  0  0  0
  6  2  1  0  0  0  0
  7  2  1  0  0  0  0
  8  7  1  0  0  0  0
  9  6  1  0  0  0  0
 10  1  2  0  0  0  0
 11  4  1  0  0  0  0
 12  4  2  0  0  0  0
 13  5  1  0  0  0  0
 14  5  2  0  0  0  0
 15 17  2  0  0  0  0
 15 16  1  0  0  0  0
 16 13  2  0  0  0  0
 17 14  1  0  0  0  0
 18 15  1  0  0  0  0
 19 11  1  0  0  0  0
 20 19  1  0  0  0  0
 21 19  1  0  0  0  0
M  END
>  <ID>
5846998

>  <Supplier>
ChemBridge

>  <clogP>
2.020000000000000e+000

>  <RB>
2

>  <tPSA>
4.061999999999998e+001

>  <Hacc>
2

>  <Hdon>
0

>  <LogSw>
-3.057000000000000e+000

>  <Group>
3

>  <Core>
168

$$$$
5635081
 OpenBabel03312015312D

 26 29  0  0  0  0  0  0  0  0999 V2000
    2.6792    0.1333    0.0000 C   0  0  0  0  0  0  0  0  0  0  0  0
    2.6792    0.8708    0.0000 C   0  0  0  0  0  0  0  0  0  0  0  0
    2.0375   -0.2375    0.0000 N   0  0  0  0  0  0  0  0  0  0  0  0
   -1.8500   -0.2375    0.0000 C   0  0  0  0  0  0  0  0  0  0  0  0
   -2.5333    0.1333    0.0000 S   0  0  0  0  0  0  0  0  0  0  0  0
    3.3167   -0.2375    0.0000 N   0  0  0  0  0  0  0  0  0  0  0  0
    2.0375    1.2458    0.0000 N   0  0  0  0  0  0  0  0  0  0  0  0
   -1.8500   -0.9875    0.0000 N   0  0  0  0  0  0  0  0  0  0  0  0
   -3.1833   -0.2667    0.0000 C   0  0  0  0  0  0  0  0  0  0  0  0
    3.9542    0.8708    0.0000 C   0  0  0  0  0  0  0  0  0  0  0  0
   -3.1958   -0.9875    0.0000 N   0  0  0  0  0  0  0  0  0  0  0  0
    1.4000    0.1458    0.0000 C   0  0  0  0  0  0  0  0  0  0  0  0
   -1.2000    0.1625    0.0000 N   0  0  0  0  0  0  0  0  0  0  0  0
    3.9542    0.1333    0.0000 C   0  0  0  0  0  0  0  0  0  0  0  0
    1.4000    0.8708    0.0000 N   0  0  0  0  0  0  0  0  0  0  0  0
   -0.5208   -0.2167    0.0000 C   0  0  0  0  0  0  0  0  0  0  0  0
    0.7542   -0.2292    0.0000 S   0  0  0  0  0  0  0  0  0  0  0  0
   -0.5125   -0.9875    0.0000 O   0  0  0  0  0  0  0  0  0  0  0  0
   -3.8833    0.0958    0.0000 S   0  0  0  0  0  0  0  0  0  0  0  0
    0.1167    0.1500    0.0000 C   0  0  0  0  0  0  0  0  0  0  0  0
    4.5875    1.2458    0.0000 C   0  0  0  0  0  0  0  0  0  0  0  0
    4.5875   -0.2375    0.0000 C   0  0  0  0  0  0  0  0  0  0  0  0
   -4.5625   -0.3042    0.0000 C   0  0  0  0  0  0  0  0  0  0  0  0
    5.2375    0.8625    0.0000 C   0  0  0  0  0  0  0  0  0  0  0  0
   -5.2708    0.0625    0.0000 C   0  0  0  0  0  0  0  0  0  0  0  0
    5.2375    0.1333    0.0000 C   0  0  0  0  0  0  0  0  0  0  0  0
  2  1  2  0  0  0  0
  3  1  1  0  0  0  0
  4 13  1  0  0  0  0
  5  4  1  0  0  0  0
  6  1  1  0  0  0  0
  7  2  1  0  0  0  0
  8  4  2  0  0  0  0
  9  5  1  0  0  0  0
  9 11  2  0  0  0  0
 10  2  1  0  0  0  0
 10 14  2  0  0  0  0
 11  8  1  0  0  0  0
 12  3  2  0  0  0  0
 13 16  1  0  0  0  0
 14  6  1  0  0  0  0
 15 12  1  0  0  0  0
 15  7  2  0  0  0  0
 16 20  1  0  0  0  0
 17 12  1  0  0  0  0
 18 16  2  0  0  0  0
 19  9  1  0  0  0  0
 20 17  1  0  0  0  0
 21 10  1  0  0  0  0
 22 14  1  0  0  0  0
 23 19  1  0  0  0  0
 24 21  2  0  0  0  0
 24 26  1  0  0  0  0
 25 23  1  0  0  0  0
 26 22  2  0  0  0  0
M  END
>  <ID>
5635081

>  <Supplier>
ChemBridge

>  <clogP>
2.020000000000000e+000

>  <RB>
5

>  <tPSA>
1.093400000000000e+002

>  <Hacc>
6

>  <Hdon>
2

>  <LogSw>
-4.977000000000000e+000

>  <Group>
1

>  <Core>
034

$$$$
7017374
 OpenBabel03312015312D

 23 23  0  0  0  0  0  0  0  0999 V2000
   -0.7625    0.1708    0.0000 C   0  0  0  0  0  0  0  0  0  0  0  0
   -1.1833    0.7458    0.0000 C   0  0  0  0  0  0  0  0  0  0  0  0
   -0.1833    0.3458    0.0000 C   0  0  0  0  0  0  0  0  0  0  0  0
   -1.7958    0.5500    0.0000 O   0  0  0  0  0  0  0  0  0  0  0  0
    0.0500   -0.2042    0.0000 O   0  0  0  0  0  0  0  0  0  0  0  0
   -3.4125   -2.3792    0.0000 C   0  0  0  0  0  0  0  0  0  0  0  0
   -1.3708    1.4958    0.0000 O   0  0  0  0  0  0  0  0  0  0  0  0
    0.4167    0.8208    0.0000 O   0  0  0  0  0  0  0  0  0  0  0  0
   -4.5500   -3.0042    0.0000 C   0  0  0  0  0  0  0  0  0  0  0  0
   -2.7125   -2.1292    0.0000 S   0  0  0  0  0  0  0  0  0  0  0  0
   -4.8833   -3.2167    0.0000 Cl  0  0  0  0  0  0  0  0  0  0  0  0
   -3.4125   -3.0042    0.0000 C   0  0  0  0  0  0  0  0  0  0  0  0
   -3.9958   -2.0292    0.0000 C   0  0  0  0  0  0  0  0  0  0  0  0
   -4.5500   -2.3792    0.0000 C   0  0  0  0  0  0  0  0  0  0  0  0
   -3.9958   -3.3542    0.0000 C   0  0  0  0  0  0  0  0  0  0  0  0
   -0.9000   -0.4875    0.0000 C   0  0  0  0  0  0  0  0  0  0  0  0
   -2.7125   -1.4792    0.0000 C   0  0  0  0  0  0  0  0  0  0  0  0
   -0.8208    2.0333    0.0000 C   0  0  0  0  0  0  0  0  0  0  0  0
    0.3542    1.5500    0.0000 C   0  0  0  0  0  0  0  0  0  0  0  0
   -1.7333   -0.7542    0.0000 C   0  0  0  0  0  0  0  0  0  0  0  0
   -1.7333   -1.3042    0.0000 C   0  0  0  0  0  0  0  0  0  0  0  0
   -1.0125    2.7125    0.0000 C   0  0  0  0  0  0  0  0  0  0  0  0
    0.8292    1.8625    0.0000 C   0  0  0  0  0  0  0  0  0  0  0  0
  2  1  1  0  0  0  0
  3  1  1  0  0  0  0
  4  2  2  0  0  0  0
  5  3  2  0  0  0  0
  6 10  1  0  0  0  0
  7  2  1  0  0  0  0
  8  3  1  0  0  0  0
  9 14  1  0  0  0  0
 10 17  1  0  0  0  0
 11  9  1  0  0  0  0
 12  6  2  0  0  0  0
 13  6  1  0  0  0  0
 14 13  2  0  0  0  0
 15 12  1  0  0  0  0
 15  9  2  0  0  0  0
 16  1  1  0  0  0  0
 17 21  1  0  0  0  0
 18  7  1  0  0  0  0
 19  8  1  0  0  0  0
 20 16  1  0  0  0  0
 21 20  1  0  0  0  0
 22 18  1  0  0  0  0
 23 19  1  0  0  0  0
M  END
>  <ID>
7017374

>  <Supplier>
ChemBridge

>  <clogP>
5.490000000000000e+000

>  <RB>
8

>  <tPSA>
5.259999999999999e+001

>  <Hacc>
4

>  <Hdon>
0

>  <LogSw>
-6.505000000000000e+000

>  <Group>
1

$$$$
5635083
 OpenBabel03312015312D

 19 20  0  0  0  0  0  0  0  0999 V2000
    0.1792    0.3125    0.0000 C   0  0  0  0  0  0  0  0  0  0  0  0
   -0.6208    0.3125    0.0000 N   0  0  0  0  0  0  0  0  0  0  0  0
   -1.4000    0.3125    0.0000 C   0  0  0  0  0  0  0  0  0  0  0  0
    0.9792    0.3125    0.0000 N   0  0  0  0  0  0  0  0  0  0  0  0
    0.1792    1.1125    0.0000 O   0  0  0  0  0  0  0  0  0  0  0  0
   -1.8000   -0.3667    0.0000 C   0  0  0  0  0  0  0  0  0  0  0  0
    1.7542    0.3125    0.0000 C   0  0  0  0  0  0  0  0  0  0  0  0
   -1.4000   -1.0500    0.0000 F   0  0  0  0  0  0  0  0  0  0  0  0
    3.3375    0.3125    0.0000 C   0  0  0  0  0  0  0  0  0  0  0  0
    2.1542    0.9958    0.0000 C   0  0  0  0  0  0  0  0  0  0  0  0
    2.1542   -0.3667    0.0000 C   0  0  0  0  0  0  0  0  0  0  0  0
    2.9375   -0.3667    0.0000 C   0  0  0  0  0  0  0  0  0  0  0  0
    2.9375    0.9958    0.0000 C   0  0  0  0  0  0  0  0  0  0  0  0
    4.1500    0.3125    0.0000 O   0  0  0  0  0  0  0  0  0  0  0  0
   -1.8000    0.9958    0.0000 C   0  0  0  0  0  0  0  0  0  0  0  0
   -2.5833   -0.3667    0.0000 C   0  0  0  0  0  0  0  0  0  0  0  0
    4.5042   -0.3542    0.0000 C   0  0  0  0  0  0  0  0  0  0  0  0
   -2.5833    0.9958    0.0000 C   0  0  0  0  0  0  0  0  0  0  0  0
   -2.9833    0.3125    0.0000 C   0  0  0  0  0  0  0  0  0  0  0  0
  2  1  1  0  0  0  0
  3  2  1  0  0  0  0
  4  1  1  0  0  0  0
  5  1  2  0  0  0  0
  6  3  1  0  0  0  0
  7  4  1  0  0  0  0
  8  6  1  0  0  0  0
  9 12  2  0  0  0  0
 10  7  1  0  0  0  0
 11  7  2  0  0  0  0
 12 11  1  0  0  0  0
 13 10  2  0  0  0  0
 13  9  1  0  0  0  0
 14  9  1  0  0  0  0
 15  3  2  0  0  0  0
 16  6  2  0  0  0  0
 16 19  1  0  0  0  0
 17 14  1  0  0  0  0
 18 15  1  0  0  0  0
 19 18  2  0  0  0  0
M  END
>  <ID>
5635083

>  <Supplier>
ChemBridge

>  <clogP>
2.970000000000000e+000

>  <RB>
2

>  <tPSA>
5.036000000000001e+001

>  <Hacc>
2

>  <Hdon>
2

>  <LogSw>
-3.635000000000000e+000

>  <Group>
3

>  <Core>
514

$$$$
7017373
 OpenBabel03312015312D

 25 27  0  0  0  0  0  0  0  0999 V2000
    4.3167    2.0583    0.0000 C   0  0  0  0  0  0  0  0  0  0  0  0
    3.2250    0.7333    0.0000 N   0  0  0  0  0  0  0  0  0  0  0  0
    3.2917    1.7875    0.0000 C   0  0  0  0  0  0  0  0  0  0  0  0
    4.8875    1.1583    0.0000 C   0  0  0  0  0  0  0  0  0  0  0  0
    4.2125    0.3375    0.0000 C   0  0  0  0  0  0  0  0  0  0  0  0
    2.5042    0.3250    0.0000 C   0  0  0  0  0  0  0  0  0  0  0  0
    4.6167    2.8333    0.0000 C   0  0  0  0  0  0  0  0  0  0  0  0
   -0.0958    0.3458    0.0000 C   0  0  0  0  0  0  0  0  0  0  0  0
    0.5625    0.7208    0.0000 C   0  0  0  0  0  0  0  0  0  0  0  0
    1.2042    0.3375    0.0000 O   0  0  0  0  0  0  0  0  0  0  0  0
    1.8542    0.7083    0.0000 C   0  0  0  0  0  0  0  0  0  0  0  0
    2.5000   -0.5000    0.0000 O   0  0  0  0  0  0  0  0  0  0  0  0
    4.1000    3.4833    0.0000 O   0  0  0  0  0  0  0  0  0  0  0  0
   -0.7375    0.7333    0.0000 C   0  0  0  0  0  0  0  0  0  0  0  0
    0.5667    1.4708    0.0000 C   0  0  0  0  0  0  0  0  0  0  0  0
   -0.7333    1.4833    0.0000 C   0  0  0  0  0  0  0  0  0  0  0  0
    5.4417    2.9583    0.0000 O   0  0  0  0  0  0  0  0  0  0  0  0
   -0.0833    1.8458    0.0000 C   0  0  0  0  0  0  0  0  0  0  0  0
   -1.3833    1.8583    0.0000 Br  0  0  0  0  0  0  0  0  0  0  0  0
    5.9292    0.9750    0.0000 C   0  0  0  0  0  0  0  0  0  0  0  0
    4.5792   -0.6542    0.0000 C   0  0  0  0  0  0  0  0  0  0  0  0
   -0.0958   -0.4042    0.0000 C   0  0  0  0  0  0  0  0  0  0  0  0
    5.7417    3.7333    0.0000 C   0  0  0  0  0  0  0  0  0  0  0  0
    5.6292   -0.8375    0.0000 C   0  0  0  0  0  0  0  0  0  0  0  0
    6.3042   -0.0167    0.0000 C   0  0  0  0  0  0  0  0  0  0  0  0
  2  3  1  0  0  0  0
  3  1  2  0  0  0  0
  4  1  1  0  0  0  0
  5  4  2  0  0  0  0
  5  2  1  0  0  0  0
  6  2  1  0  0  0  0
  7  1  1  0  0  0  0
  8  9  2  0  0  0  0
  9 10  1  0  0  0  0
 10 11  1  0  0  0  0
 11  6  1  0  0  0  0
 12  6  2  0  0  0  0
 13  7  2  0  0  0  0
 14  8  1  0  0  0  0
 15  9  1  0  0  0  0
 16 18  1  0  0  0  0
 16 14  2  0  0  0  0
 17  7  1  0  0  0  0
 18 15  2  0  0  0  0
 19 16  1  0  0  0  0
 20  4  1  0  0  0  0
 21  5  1  0  0  0  0
 21 24  2  0  0  0  0
 22  8  1  0  0  0  0
 23 17  1  0  0  0  0
 24 25  1  0  0  0  0
 25 20  2  0  0  0  0
M  END
>  <ID>
7017373

>  <Supplier>
ChemBridge

>  <clogP>
5.300000000000000e+000

>  <RB>
4

>  <tPSA>
5.753000000000000e+001

>  <Hacc>
5

>  <Hdon>
0

>  <LogSw>
-6.659000000000000e+000

>  <Group>
1

>  <Core>
315

$$$$
5635086
 OpenBabel03312015312D

 26 28  0  0  0  0  0  0  0  0999 V2000
    3.1875   -5.2042    0.0000 N   0  0  0  0  0  0  0  0  0  0  0  0
    4.2667   -4.4292    0.0000 C   0  0  0  0  0  0  0  0  0  0  0  0
    2.9292   -4.4167    0.0000 N   0  0  0  0  0  0  0  0  0  0  0  0
    4.0042   -5.2042    0.0000 C   0  0  0  0  0  0  0  0  0  0  0  0
    3.6000   -3.9375    0.0000 C   0  0  0  0  0  0  0  0  0  0  0  0
    8.8042   -3.7292    0.0000 N   0  3  0  0  0  0  0  0  0  0  0  0
    5.0500   -4.1792    0.0000 C   0  0  0  0  0  0  0  0  0  0  0  0
    8.0167   -3.9792    0.0000 C   0  0  0  0  0  0  0  0  0  0  0  0
    5.6542   -4.7292    0.0000 N   0  0  0  0  0  0  0  0  0  0  0  0
    2.7000   -5.8667    0.0000 C   0  0  0  0  0  0  0  0  0  0  0  0
    7.8500   -4.7875    0.0000 C   0  0  0  0  0  0  0  0  0  0  0  0
    9.4167   -4.2792    0.0000 O   0  5  0  0  0  0  0  0  0  0  0  0
    7.0542   -5.0375    0.0000 C   0  0  0  0  0  0  0  0  0  0  0  0
    4.4875   -5.8792    0.0000 O   0  0  0  0  0  0  0  0  0  0  0  0
    6.4500   -4.4792    0.0000 C   0  0  0  0  0  0  0  0  0  0  0  0
    8.9792   -2.9167    0.0000 O   0  0  0  0  0  0  0  0  0  0  0  0
    7.4042   -3.4292    0.0000 C   0  0  0  0  0  0  0  0  0  0  0  0
    6.6292   -3.6792    0.0000 C   0  0  0  0  0  0  0  0  0  0  0  0
    3.0292   -6.6292    0.0000 C   0  0  0  0  0  0  0  0  0  0  0  0
    1.8792   -5.7792    0.0000 C   0  0  0  0  0  0  0  0  0  0  0  0
    1.7167   -7.2000    0.0000 C   0  0  0  0  0  0  0  0  0  0  0  0
    1.3875   -6.4500    0.0000 C   0  0  0  0  0  0  0  0  0  0  0  0
    2.5375   -7.2875    0.0000 C   0  0  0  0  0  0  0  0  0  0  0  0
    1.1542   -7.9667    0.0000 Cl  0  0  0  0  0  0  0  0  0  0  0  0
    3.6000   -3.1167    0.0000 C   0  0  0  0  0  0  0  0  0  0  0  0
    6.8792   -5.8375    0.0000 C   0  0  0  0  0  0  0  0  0  0  0  0
  2  4  1  0  0  0  0
  2  5  1  0  0  0  0
  3  1  1  0  0  0  0
  4  1  1  0  0  0  0
  5  3  2  0  0  0  0
  6  8  1  0  0  0  0
  7  2  2  0  0  0  0
  8 17  2  0  0  0  0
  9  7  1  0  0  0  0
 10  1  1  0  0  0  0
 11 13  2  0  0  0  0
 11  8  1  0  0  0  0
 12  6  1  0  0  0  0
 13 15  1  0  0  0  0
 14  4  2  0  0  0  0
 15  9  1  0  0  0  0
 16  6  2  0  0  0  0
 17 18  1  0  0  0  0
 18 15  2  0  0  0  0
 19 10  2  0  0  0  0
 20 10  1  0  0  0  0
 21 22  1  0  0  0  0
 21 23  2  0  0  0  0
 22 20  2  0  0  0  0
 23 19  1  0  0  0  0
 24 21  1  0  0  0  0
 25  5  1  0  0  0  0
 26 13  1  0  0  0  0
M  CHG  2   6   1  12  -1
M  END
>  <ID>
5635086

>  <Supplier>
ChemBridge

>  <clogP>
6.180000000000000e+000

>  <RB>
3

>  <tPSA>
8.784000000000000e+001

>  <Hacc>
4

>  <Hdon>
1

>  <LogSw>
-7.181000000000000e+000

>  <Group>
1

>  <Core>
047

$$$$
5479392
 OpenBabel03312015312D

 28 30  0  0  0  0  0  0  0  0999 V2000
    0.6042    1.6625    0.0000 S   0  0  0  0  0  0  0  0  0  0  0  0
    1.6667    1.6625    0.0000 C   0  0  0  0  0  0  0  0  0  0  0  0
    0.6042    2.6958    0.0000 O   0  0  0  0  0  0  0  0  0  0  0  0
    0.6042    0.5958    0.0000 O   0  0  0  0  0  0  0  0  0  0  0  0
   -0.4333    1.6625    0.0000 O   0  0  0  0  0  0  0  0  0  0  0  0
   -2.5333   -0.1792    0.0000 N   0  0  0  0  0  0  0  0  0  0  0  0
    2.1875    0.7333    0.0000 C   0  0  0  0  0  0  0  0  0  0  0  0
    2.1875    2.5833    0.0000 C   0  0  0  0  0  0  0  0  0  0  0  0
   -0.9458    0.7333    0.0000 C   0  0  0  0  0  0  0  0  0  0  0  0
   -1.9958   -1.0542    0.0000 C   0  0  0  0  0  0  0  0  0  0  0  0
   -3.6000   -0.2042    0.0000 C   0  0  0  0  0  0  0  0  0  0  0  0
    3.7375    1.6625    0.0000 C   0  0  0  0  0  0  0  0  0  0  0  0
    3.2292    0.7333    0.0000 C   0  0  0  0  0  0  0  0  0  0  0  0
    3.2542    2.5833    0.0000 C   0  0  0  0  0  0  0  0  0  0  0  0
    4.7875    1.6708    0.0000 Cl  0  0  0  0  0  0  0  0  0  0  0  0
   -4.0958   -1.1375    0.0000 C   0  0  0  0  0  0  0  0  0  0  0  0
   -0.9458   -1.0375    0.0000 C   0  0  0  0  0  0  0  0  0  0  0  0
   -2.0125    0.7333    0.0000 C   0  0  0  0  0  0  0  0  0  0  0  0
   -3.5333   -2.0292    0.0000 C   0  0  0  0  0  0  0  0  0  0  0  0
   -5.1583   -1.1792    0.0000 C   0  0  0  0  0  0  0  0  0  0  0  0
   -0.3958   -1.9375    0.0000 C   0  0  0  0  0  0  0  0  0  0  0  0
   -0.4458   -0.1167    0.0000 C   0  0  0  0  0  0  0  0  0  0  0  0
   -5.6583   -2.1042    0.0000 C   0  0  0  0  0  0  0  0  0  0  0  0
    0.6542   -1.9167    0.0000 C   0  0  0  0  0  0  0  0  0  0  0  0
    0.6042   -0.0917    0.0000 C   0  0  0  0  0  0  0  0  0  0  0  0
   -4.0208   -2.9667    0.0000 C   0  0  0  0  0  0  0  0  0  0  0  0
   -5.0833   -3.0042    0.0000 C   0  0  0  0  0  0  0  0  0  0  0  0
    1.1667   -1.0000    0.0000 C   0  0  0  0  0  0  0  0  0  0  0  0
  2  1  1  0  0  0  0
  3  1  2  0  0  0  0
  4  1  2  0  0  0  0
  5  1  1  0  0  0  0
  6 18  1  0  0  0  0
  7  2  1  0  0  0  0
  8  2  2  0  0  0  0
  9  5  1  0  0  0  0
 10  6  1  0  0  0  0
 11  6  1  0  0  0  0
 12 14  2  0  0  0  0
 12 13  1  0  0  0  0
 13  7  2  0  0  0  0
 14  8  1  0  0  0  0
 15 12  1  0  0  0  0
 16 11  1  0  0  0  0
 17 10  1  0  0  0  0
 18  9  1  0  0  0  0
 19 16  1  0  0  0  0
 20 16  2  0  0  0  0
 21 17  2  0  0  0  0
 22 17  1  0  0  0  0
 23 20  1  0  0  0  0
 24 21  1  0  0  0  0
 24 28  2  0  0  0  0
 25 22  2  0  0  0  0
 26 19  2  0  0  0  0
 26 27  1  0  0  0  0
 27 23  2  0  0  0  0
 28 25  1  0  0  0  0
M  END
>  <ID>
5479392

>  <Supplier>
ChemBridge

>  <clogP>
5.230000000000000e+000

>  <RB>
9

>  <tPSA>
4.661000000000000e+001

>  <Hacc>
4

>  <Hdon>
0

>  <LogSw>
-5.690000000000000e+000

>  <Group>
2

$$$$
5479390
 OpenBabel03312015312D

 20 22  0  0  0  0  0  0  0  0999 V2000
    0.4042    1.1333    0.0000 C   0  0  0  0  0  0  0  0  0  0  0  0
   -0.1458    2.0833    0.0000 N   0  0  0  0  0  0  0  0  0  0  0  0
   -1.2458    2.0833    0.0000 C   0  0  0  0  0  0  0  0  0  0  0  0
   -1.7833    1.1333    0.0000 C   0  0  0  0  0  0  0  0  0  0  0  0
    1.5042    1.1333    0.0000 C   0  0  0  0  0  0  0  0  0  0  0  0
   -3.4333    0.1833    0.0000 N   0  0  0  0  0  0  0  0  0  0  0  0
   -0.1458    0.1208    0.0000 O   0  0  0  0  0  0  0  0  0  0  0  0
   -2.8708    1.1333    0.0000 C   0  0  0  0  0  0  0  0  0  0  0  0
    2.0667    2.0833    0.0000 C   0  0  0  0  0  0  0  0  0  0  0  0
    2.0542    0.1958    0.0000 C   0  0  0  0  0  0  0  0  0  0  0  0
    3.7000    1.1625    0.0000 C   0  0  0  0  0  0  0  0  0  0  0  0
    3.1542    0.1958    0.0000 C   0  0  0  0  0  0  0  0  0  0  0  0
    3.1542    2.0708    0.0000 C   0  0  0  0  0  0  0  0  0  0  0  0
    4.8167    1.1708    0.0000 F   0  0  0  0  0  0  0  0  0  0  0  0
   -1.7958    3.0208    0.0000 C   0  0  0  0  0  0  0  0  0  0  0  0
   -1.2333    0.1833    0.0000 C   0  0  0  0  0  0  0  0  0  0  0  0
   -2.8958    3.0208    0.0000 C   0  0  0  0  0  0  0  0  0  0  0  0
   -2.8833   -0.7792    0.0000 C   0  0  0  0  0  0  0  0  0  0  0  0
   -3.4208    2.0625    0.0000 C   0  0  0  0  0  0  0  0  0  0  0  0
   -1.7833   -0.7792    0.0000 C   0  0  0  0  0  0  0  0  0  0  0  0
  2  1  1  0  0  0  0
  3  2  1  0  0  0  0
  4  3  1  0  0  0  0
  5  1  1  0  0  0  0
  6  8  1  0  0  0  0
  7  1  2  0  0  0  0
  8  4  2  0  0  0  0
  8 19  1  0  0  0  0
  9  5  1  0  0  0  0
 10  5  2  0  0  0  0
 11 12  2  0  0  0  0
 11 13  1  0  0  0  0
 12 10  1  0  0  0  0
 13  9  2  0  0  0  0
 14 11  1  0  0  0  0
 15  3  2  0  0  0  0
 16  4  1  0  0  0  0
 17 15  1  0  0  0  0
 18 20  1  0  0  0  0
 18  6  2  0  0  0  0
 19 17  2  0  0  0  0
 20 16  2  0  0  0  0
M  END
>  <ID>
5479390

>  <Supplier>
ChemBridge

>  <clogP>
3.360000000000000e+000

>  <RB>
2

>  <tPSA>
4.199000000000000e+001

>  <Hacc>
2

>  <Hdon>
1

>  <LogSw>
-4.012000000000000e+000

>  <Group>
2

$$$$
7017378
 OpenBabel03312015312D

 20 21  0  0  0  0  0  0  0  0999 V2000
    5.4625    1.5958    0.0000 N   0  3  0  0  0  0  0  0  0  0  0  0
    5.4625    2.3458    0.0000 C   0  0  0  0  0  0  0  0  0  0  0  0
    6.1125    2.7208    0.0000 C   0  0  0  0  0  0  0  0  0  0  0  0
    4.8125    1.2208    0.0000 O   0  5  0  0  0  0  0  0  0  0  0  0
    4.8125    2.7208    0.0000 C   0  0  0  0  0  0  0  0  0  0  0  0
   10.0042    2.7208    0.0000 N   0  0  0  0  0  0  0  0  0  0  0  0
    6.1125    1.2208    0.0000 O   0  0  0  0  0  0  0  0  0  0  0  0
    6.1125    3.4708    0.0000 C   0  0  0  0  0  0  0  0  0  0  0  0
    4.8125    3.4708    0.0000 C   0  0  0  0  0  0  0  0  0  0  0  0
    5.4625    3.8458    0.0000 C   0  0  0  0  0  0  0  0  0  0  0  0
    6.7625    2.3458    0.0000 O   0  0  0  0  0  0  0  0  0  0  0  0
    9.3625    2.3458    0.0000 C   0  0  0  0  0  0  0  0  0  0  0  0
   10.6917    2.4083    0.0000 C   0  0  0  0  0  0  0  0  0  0  0  0
   10.0792    3.4625    0.0000 C   0  0  0  0  0  0  0  0  0  0  0  0
    4.1625    3.8458    0.0000 C   0  0  0  0  0  0  0  0  0  0  0  0
    7.4125    2.7208    0.0000 C   0  0  0  0  0  0  0  0  0  0  0  0
    8.7125    2.7208    0.0000 C   0  0  0  0  0  0  0  0  0  0  0  0
    8.0625    2.3458    0.0000 C   0  0  0  0  0  0  0  0  0  0  0  0
   10.8167    3.6208    0.0000 C   0  0  0  0  0  0  0  0  0  0  0  0
   11.1917    2.9708    0.0000 C   0  0  0  0  0  0  0  0  0  0  0  0
  2  1  1  0  0  0  0
  3  2  2  0  0  0  0
  4  1  1  0  0  0  0
  5  2  1  0  0  0  0
  6 12  1  0  0  0  0
  7  1  2  0  0  0  0
  8  3  1  0  0  0  0
  8 10  2  0  0  0  0
  9  5  2  0  0  0  0
 10  9  1  0  0  0  0
 11  3  1  0  0  0  0
 12 17  1  0  0  0  0
 13  6  1  0  0  0  0
 14  6  1  0  0  0  0
 15  9  1  0  0  0  0
 16 11  1  0  0  0  0
 17 18  1  0  0  0  0
 18 16  1  0  0  0  0
 19 14  1  0  0  0  0
 20 13  1  0  0  0  0
 20 19  1  0  0  0  0
M  CHG  2   1   1   4  -1
M  END
>  <ID>
7017378

>  <Supplier>
ChemBridge

>  <clogP>
-3.200000000000000e-001

>  <RB>
6

>  <tPSA>
1.302100000000000e+002

>  <Hacc>
8

>  <Hdon>
2

>  <LogSw>
-3.390000000000000e-001

>  <Group>
2

>  <Core>
105

$$$$
7817315
 OpenBabel03312015312D

 22 23  0  0  0  0  0  0  0  0999 V2000
    2.1292   -6.8125    0.0000 C   0  0  0  0  0  0  0  0  0  0  0  0
    4.0917   -3.3917    0.0000 N   0  0  0  0  0  0  0  0  0  0  0  0
    8.1000   -3.3917    0.0000 C   0  0  0  0  0  0  0  0  0  0  0  0
   10.0542    0.0875    0.0000 C   0  0  0  0  0  0  0  0  0  0  0  0
   -1.8250   -6.8125    0.0000 N   0  0  0  0  0  0  0  0  0  0  0  0
  -13.8625    6.8667    0.0000 C   0  0  0  0  0  0  0  0  0  0  0  0
    4.1292  -10.2167    0.0000 O   0  0  0  0  0  0  0  0  0  0  0  0
   13.9667    0.0875    0.0000 C   0  0  0  0  0  0  0  0  0  0  0  0
  -15.8792    3.4958    0.0000 O   0  0  0  0  0  0  0  0  0  0  0  0
   -9.9042    6.8917    0.0000 C   0  0  0  0  0  0  0  0  0  0  0  0
   -3.8208   -3.4375    0.0000 C   0  0  0  0  0  0  0  0  0  0  0  0
   -7.8875    3.4958    0.0000 C   0  0  0  0  0  0  0  0  0  0  0  0
   15.9792    3.5875    0.0000 Cl  0  0  0  0  0  0  0  0  0  0  0  0
  -16.0000   10.2167    0.0000 O   0  0  0  0  0  0  0  0  0  0  0  0
   -1.9708    0.0583    0.0000 C   0  0  0  0  0  0  0  0  0  0  0  0
   -7.8292   -3.4375    0.0000 C   0  0  0  0  0  0  0  0  0  0  0  0
   -3.9083    3.4958    0.0000 C   0  0  0  0  0  0  0  0  0  0  0  0
   -9.8167    0.0583    0.0000 C   0  0  0  0  0  0  0  0  0  0  0  0
   10.0542   -6.7917    0.0000 C   0  0  0  0  0  0  0  0  0  0  0  0
    8.0792    3.5250    0.0000 C   0  0  0  0  0  0  0  0  0  0  0  0
   14.0250   -6.7375    0.0000 C   0  0  0  0  0  0  0  0  0  0  0  0
   16.0000   -3.3292    0.0000 C   0  0  0  0  0  0  0  0  0  0  0  0
  2  1  1  0  0  0  0
  3  2  1  0  0  0  0
  4  3  2  0  0  0  0
  5  1  1  0  0  0  0
  6 10  1  0  0  0  0
  7  1  2  0  0  0  0
  8  4  1  0  0  0  0
  9  6  2  0  0  0  0
 10 12  1  0  0  0  0
 11  5  1  0  0  0  0
 12 18  1  0  0  0  0
 12 17  2  0  0  0  0
 13  8  1  0  0  0  0
 14  6  1  0  0  0  0
 15 11  2  0  0  0  0
 16 11  1  0  0  0  0
 17 15  1  0  0  0  0
 18 16  2  0  0  0  0
 19  3  1  0  0  0  0
 20  4  1  0  0  0  0
 21 19  2  0  0  0  0
 22 21  1  0  0  0  0
 22  8  2  0  0  0  0
M  END
>  <ID>
7817315

>  <Supplier>
ChemBridge

>  <clogP>
3.240000000000000e+000

>  <RB>
4

>  <tPSA>
7.843000000000001e+001

>  <Hacc>
3

>  <Hdon>
3

>  <LogSw>
-4.292000000000000e+000

>  <Group>
3

>  <Core>
514

$$$$
6135432
 OpenBabel03312015312D

 25 28  0  0  0  0  0  0  0  0999 V2000
    0.3167    0.8125    0.0000 N   0  0  0  0  0  0  0  0  0  0  0  0
    0.3167   -0.4292    0.0000 C   0  0  3  0  0  0  0  0  0  0  0  0
   -0.7625    1.4125    0.0000 C   0  0  0  0  0  0  0  0  0  0  0  0
   -0.7625   -1.0292    0.0000 N   0  0  0  0  0  0  0  0  0  0  0  0
   -1.8000    0.8125    0.0000 C   0  0  0  0  0  0  0  0  0  0  0  0
    1.3542   -1.0500    0.0000 C   0  0  0  0  0  0  0  0  0  0  0  0
   -1.8000   -0.4292    0.0000 C   0  0  0  0  0  0  0  0  0  0  0  0
    1.3542    1.4333    0.0000 C   0  0  0  0  0  0  0  0  0  0  0  0
   -0.7625    2.6333    0.0000 O   0  0  0  0  0  0  0  0  0  0  0  0
    1.3542   -2.2667    0.0000 C   0  0  0  0  0  0  0  0  0  0  0  0
    2.4167    0.8333    0.0000 C   0  0  0  0  0  0  0  0  0  0  0  0
    1.3542    2.6500    0.0000 C   0  0  0  0  0  0  0  0  0  0  0  0
    0.2792   -2.9042    0.0000 F   0  0  0  0  0  0  0  0  0  0  0  0
   -2.8625    1.4125    0.0000 C   0  0  0  0  0  0  0  0  0  0  0  0
    2.4167   -0.4500    0.0000 C   0  0  0  0  0  0  0  0  0  0  0  0
    3.4792    1.4333    0.0000 C   0  0  0  0  0  0  0  0  0  0  0  0
    2.4000    3.2708    0.0000 C   0  0  0  0  0  0  0  0  0  0  0  0
    3.4542    2.6708    0.0000 C   0  0  0  0  0  0  0  0  0  0  0  0
   -2.8625   -1.0292    0.0000 C   0  0  0  0  0  0  0  0  0  0  0  0
    2.4000   -2.8875    0.0000 C   0  0  0  0  0  0  0  0  0  0  0  0
    4.5167    3.3125    0.0000 C   0  0  0  0  0  0  0  0  0  0  0  0
   -3.9208    0.8125    0.0000 C   0  0  0  0  0  0  0  0  0  0  0  0
    3.4792   -1.0500    0.0000 C   0  0  0  0  0  0  0  0  0  0  0  0
   -3.9208   -0.4292    0.0000 C   0  0  0  0  0  0  0  0  0  0  0  0
    3.4542   -2.2875    0.0000 C   0  0  0  0  0  0  0  0  0  0  0  0
  2  1  1  0  0  0  0
  3  1  1  0  0  0  0
  4  2  1  0  0  0  0
  4  7  1  0  0  0  0
  5  3  1  0  0  0  0
  6  2  1  0  0  0  0
  7  5  2  0  0  0  0
  8  1  1  0  0  0  0
  9  3  2  0  0  0  0
 10  6  2  0  0  0  0
 11  8  2  0  0  0  0
 12  8  1  0  0  0  0
 13 10  1  0  0  0  0
 14  5  1  0  0  0  0
 15  6  1  0  0  0  0
 16 11  1  0  0  0  0
 16 18  2  0  0  0  0
 17 12  2  0  0  0  0
 18 17  1  0  0  0  0
 19  7  1  0  0  0  0
 20 10  1  0  0  0  0
 20 25  2  0  0  0  0
 21 18  1  0  0  0  0
 22 14  2  0  0  0  0
 23 15  2  0  0  0  0
 24 22  1  0  0  0  0
 24 19  2  0  0  0  0
 25 23  1  0  0  0  0
M  END
>  <ID>
6135432

>  <Supplier>
ChemBridge

>  <clogP>
5.359999999999999e+000

>  <RB>
2

>  <tPSA>
3.234000000000000e+001

>  <Hacc>
1

>  <Hdon>
1

>  <LogSw>
-6.201000000000001e+000

>  <Group>
2

>  <Core>
388

$$$$
6316754
 OpenBabel03312015312D

 28 30  0  0  0  0  0  0  0  0999 V2000
    2.4875   -0.6750    0.0000 N   0  0  0  0  0  0  0  0  0  0  0  0
    3.1917   -0.2542    0.0000 C   0  0  0  0  0  0  0  0  0  0  0  0
    2.4875   -1.5000    0.0000 C   0  0  0  0  0  0  0  0  0  0  0  0
    3.1917   -1.9042    0.0000 C   0  0  0  0  0  0  0  0  0  0  0  0
    3.9042   -0.6750    0.0000 N   0  0  0  0  0  0  0  0  0  0  0  0
    3.9042   -1.5000    0.0000 C   0  0  0  0  0  0  0  0  0  0  0  0
    1.7667   -0.2625    0.0000 C   0  0  0  0  0  0  0  0  0  0  0  0
    1.7667    0.5708    0.0000 C   0  0  0  0  0  0  0  0  0  0  0  0
    3.1917   -2.7292    0.0000 C   0  0  0  0  0  0  0  0  0  0  0  0
    3.1917    0.5708    0.0000 S   0  0  0  0  0  0  0  0  0  0  0  0
    6.0125   -4.4000    0.0000 C   0  0  0  0  0  0  0  0  0  0  0  0
    1.7667   -1.9125    0.0000 O   0  0  0  0  0  0  0  0  0  0  0  0
    4.6250   -1.9125    0.0000 O   0  0  0  0  0  0  0  0  0  0  0  0
    5.3000   -3.9792    0.0000 C   0  0  0  0  0  0  0  0  0  0  0  0
    1.0542    0.9750    0.0000 C   0  0  0  0  0  0  0  0  0  0  0  0
    6.7250   -4.0000    0.0000 O   0  0  0  0  0  0  0  0  0  0  0  0
    3.9000   -3.1500    0.0000 C   0  0  0  0  0  0  0  0  0  0  0  0
    2.4875    0.9833    0.0000 Cl  0  0  0  0  0  0  0  0  0  0  0  0
    5.3042   -3.1542    0.0000 C   0  0  0  0  0  0  0  0  0  0  0  0
    4.5917   -4.3750    0.0000 C   0  0  0  0  0  0  0  0  0  0  0  0
    1.0542   -0.6750    0.0000 C   0  0  0  0  0  0  0  0  0  0  0  0
    1.0542    1.8083    0.0000 Cl  0  0  0  0  0  0  0  0  0  0  0  0
    6.0000   -5.2167    0.0000 O   0  0  0  0  0  0  0  0  0  0  0  0
    4.6042   -2.7375    0.0000 C   0  0  0  0  0  0  0  0  0  0  0  0
    3.8917   -3.9542    0.0000 C   0  0  0  0  0  0  0  0  0  0  0  0
    0.3417   -0.2625    0.0000 C   0  0  0  0  0  0  0  0  0  0  0  0
    0.3417    0.5708    0.0000 C   0  0  0  0  0  0  0  0  0  0  0  0
    5.2792   -5.6042    0.0000 C   0  0  0  0  0  0  0  0  0  0  0  0
  2  1  1  0  0  0  0
  3  1  1  0  0  0  0
  4  3  1  0  0  0  0
  5  2  1  0  0  0  0
  6  4  1  0  0  0  0
  6  5  1  0  0  0  0
  7  1  1  0  0  0  0
  8  7  2  0  0  0  0
  9  4  2  0  0  0  0
 10  2  2  0  0  0  0
 11 14  1  0  0  0  0
 12  3  2  0  0  0  0
 13  6  2  0  0  0  0
 14 20  2  0  0  0  0
 14 19  1  0  0  0  0
 15  8  1  0  0  0  0
 16 11  2  0  0  0  0
 17  9  1  0  0  0  0
 18  8  1  0  0  0  0
 19 24  2  0  0  0  0
 20 25  1  0  0  0  0
 21  7  1  0  0  0  0
 22 15  1  0  0  0  0
 23 11  1  0  0  0  0
 24 17  1  0  0  0  0
 25 17  2  0  0  0  0
 26 21  2  0  0  0  0
 27 26  1  0  0  0  0
 27 15  2  0  0  0  0
 28 23  1  0  0  0  0
M  END
>  <ID>
6316754

>  <Supplier>
ChemBridge

>  <clogP>
5.290000000000000e+000

>  <RB>
3

>  <tPSA>
7.570999999999999e+001

>  <Hacc>
4

>  <Hdon>
1

>  <LogSw>
-6.891000000000000e+000

>  <Group>
1

>  <Core>
007

$$$$
6135436
 OpenBabel03312015312D

 27 30  0  0  0  0  0  0  0  0999 V2000
    0.2667    0.5958    0.0000 C   0  0  0  0  0  0  0  0  0  0  0  0
   -0.4333    0.9125    0.0000 N   0  0  0  0  0  0  0  0  0  0  0  0
    3.7250    1.4625    0.0000 N   0  0  0  0  0  0  0  0  0  0  0  0
    3.6667    0.6958    0.0000 C   0  0  0  0  0  0  0  0  0  0  0  0
    0.1875   -0.1875    0.0000 O   0  0  0  0  0  0  0  0  0  0  0  0
    4.4250    1.8083    0.0000 C   0  0  0  0  0  0  0  0  0  0  0  0
    5.0792    1.3583    0.0000 C   0  0  0  0  0  0  0  0  0  0  0  0
    2.9667    0.3500    0.0000 N   0  0  0  0  0  0  0  0  0  0  0  0
    2.3042    0.7958    0.0000 C   0  0  0  0  0  0  0  0  0  0  0  0
    0.9667    0.9125    0.0000 C   0  0  0  0  0  0  0  0  0  0  0  0
   -0.9500    0.3125    0.0000 C   0  0  0  0  0  0  0  0  0  0  0  0
   -0.5708   -0.3500    0.0000 C   0  0  0  0  0  0  0  0  0  0  0  0
    1.6042    0.4708    0.0000 C   0  0  0  0  0  0  0  0  0  0  0  0
    4.3042    0.2625    0.0000 S   0  0  0  0  0  0  0  0  0  0  0  0
    5.8167    1.6083    0.0000 O   0  0  0  0  0  0  0  0  0  0  0  0
    2.3667    1.5708    0.0000 C   0  0  0  0  0  0  0  0  0  0  0  0
    4.5000    2.5833    0.0000 O   0  0  0  0  0  0  0  0  0  0  0  0
    5.1042    0.5708    0.0000 C   0  0  0  0  0  0  0  0  0  0  0  0
    6.2792    0.9833    0.0000 C   0  0  0  0  0  0  0  0  0  0  0  0
    1.0500    1.6958    0.0000 C   0  0  0  0  0  0  0  0  0  0  0  0
    5.8417    0.3583    0.0000 C   0  0  0  0  0  0  0  0  0  0  0  0
    1.7500    2.0208    0.0000 C   0  0  0  0  0  0  0  0  0  0  0  0
   -1.7333    0.3125    0.0000 C   0  0  0  0  0  0  0  0  0  0  0  0
   -0.9500   -1.0500    0.0000 C   0  0  0  0  0  0  0  0  0  0  0  0
    3.0875    1.8958    0.0000 C   0  0  0  0  0  0  0  0  0  0  0  0
   -1.7125   -1.0667    0.0000 C   0  0  0  0  0  0  0  0  0  0  0  0
   -2.1333   -0.3500    0.0000 C   0  0  0  0  0  0  0  0  0  0  0  0
  2  1  2  0  0  0  0
  3  4  1  0  0  0  0
  4  8  1  0  0  0  0
  5  1  1  0  0  0  0
  6  3  1  0  0  0  0
  7  6  1  0  0  0  0
  8  9  1  0  0  0  0
  9 13  2  0  0  0  0
 10  1  1  0  0  0  0
 11  2  1  0  0  0  0
 11 12  2  0  0  0  0
 12  5  1  0  0  0  0
 13 10  1  0  0  0  0
 14  4  2  0  0  0  0
 15  7  1  0  0  0  0
 16 22  2  0  0  0  0
 16  9  1  0  0  0  0
 17  6  2  0  0  0  0
 18  7  2  0  0  0  0
 19 15  1  0  0  0  0
 20 10  2  0  0  0  0
 21 18  1  0  0  0  0
 21 19  2  0  0  0  0
 22 20  1  0  0  0  0
 23 11  1  0  0  0  0
 24 12  1  0  0  0  0
 25 16  1  0  0  0  0
 26 24  2  0  0  0  0
 27 23  2  0  0  0  0
 27 26  1  0  0  0  0
M  END
>  <ID>
6135436

>  <Supplier>
ChemBridge

>  <clogP>
3.240000000000000e+000

>  <RB>
3

>  <tPSA>
8.030000000000000e+001

>  <Hacc>
4

>  <Hdon>
2

>  <LogSw>
-4.719000000000000e+000

>  <Group>
1

>  <Core>
068

$$$$
6135435
 OpenBabel03312015312D

 31 34  0  0  0  0  0  0  0  0999 V2000
    9.8667   -2.7417    0.0000 C   0  0  0  0  0  0  0  0  0  0  0  0
    9.8667   -1.6917    0.0000 C   0  0  0  0  0  0  0  0  0  0  0  0
    8.8875   -3.2917    0.0000 C   0  0  0  0  0  0  0  0  0  0  0  0
    8.8875   -1.1417    0.0000 O   0  0  0  0  0  0  0  0  0  0  0  0
    7.9500   -2.7500    0.0000 C   0  0  0  0  0  0  0  0  0  0  0  0
    7.9500   -1.6917    0.0000 C   0  0  0  0  0  0  0  0  0  0  0  0
   10.5417   -1.3167    0.0000 C   0  0  0  0  0  0  0  0  0  0  0  0
   10.5792   -3.1542    0.0000 C   0  0  0  0  0  0  0  0  0  0  0  0
    4.0542   -1.6917    0.0000 C   0  0  0  0  0  0  0  0  0  0  0  0
    3.0750   -1.1375    0.0000 C   0  0  0  0  0  0  0  0  0  0  0  0
    6.9750   -1.1417    0.0000 C   0  0  0  0  0  0  0  0  0  0  0  0
    5.0292   -1.1417    0.0000 O   0  0  0  0  0  0  0  0  0  0  0  0
    6.9750   -3.2917    0.0000 C   0  0  0  0  0  0  0  0  0  0  0  0
    8.8875   -4.3792    0.0000 O   0  0  0  0  0  0  0  0  0  0  0  0
    1.9500   -1.2000    0.0000 O   0  0  0  0  0  0  0  0  0  0  0  0
    6.0042   -1.6917    0.0000 C   0  0  0  0  0  0  0  0  0  0  0  0
    3.3667   -0.0792    0.0000 C   0  0  0  0  0  0  0  0  0  0  0  0
    4.0500   -2.7792    0.0000 O   0  0  0  0  0  0  0  0  0  0  0  0
   10.5792   -3.9792    0.0000 C   0  0  0  0  0  0  0  0  0  0  0  0
    1.5417   -0.1750    0.0000 C   0  0  0  0  0  0  0  0  0  0  0  0
    2.4167    0.5208    0.0000 C   0  0  0  0  0  0  0  0  0  0  0  0
   10.6750   -0.5417    0.0000 F   0  0  0  0  0  0  0  0  0  0  0  0
   11.1542   -0.9750    0.0000 F   0  0  0  0  0  0  0  0  0  0  0  0
   11.2917   -1.5917    0.0000 F   0  0  0  0  0  0  0  0  0  0  0  0
    6.0042   -2.7500    0.0000 C   0  0  0  0  0  0  0  0  0  0  0  0
    9.8625   -4.3917    0.0000 O   0  0  0  0  0  0  0  0  0  0  0  0
   11.2917   -2.7417    0.0000 C   0  0  0  0  0  0  0  0  0  0  0  0
   11.2917   -4.3917    0.0000 C   0  0  0  0  0  0  0  0  0  0  0  0
    9.8625   -5.2167    0.0000 C   0  0  0  0  0  0  0  0  0  0  0  0
   12.0042   -3.1542    0.0000 C   0  0  0  0  0  0  0  0  0  0  0  0
   12.0042   -3.9792    0.0000 C   0  0  0  0  0  0  0  0  0  0  0  0
  2  1  2  0  0  0  0
  3  1  1  0  0  0  0
  4  2  1  0  0  0  0
  4  6  1  0  0  0  0
  5  3  1  0  0  0  0
  6  5  1  0  0  0  0
  7  2  1  0  0  0  0
  8  1  1  0  0  0  0
  9 12  1  0  0  0  0
 10  9  1  0  0  0  0
 11  6  2  0  0  0  0
 11 16  1  0  0  0  0
 12 16  1  0  0  0  0
 13  5  2  0  0  0  0
 14  3  2  0  0  0  0
 15 10  1  0  0  0  0
 16 25  2  0  0  0  0
 17 10  2  0  0  0  0
 18  9  2  0  0  0  0
 19  8  2  0  0  0  0
 20 15  1  0  0  0  0
 21 17  1  0  0  0  0
 21 20  2  0  0  0  0
 22  7  1  0  0  0  0
 23  7  1  0  0  0  0
 24  7  1  0  0  0  0
 25 13  1  0  0  0  0
 26 19  1  0  0  0  0
 27  8  1  0  0  0  0
 28 19  1  0  0  0  0
 29 26  1  0  0  0  0
 30 27  2  0  0  0  0
 31 30  1  0  0  0  0
 31 28  2  0  0  0  0
M  END
>  <ID>
6135435

>  <Supplier>
ChemBridge

>  <clogP>
4.130000000000000e+000

>  <RB>
4

>  <tPSA>
7.888000000000000e+001

>  <Hacc>
6

>  <Hdon>
0

>  <LogSw>
-5.863999999999997e+000

>  <Group>
2

>  <Core>
080

$$$$
6135434
 OpenBabel03312015312D

 20 22  0  0  0  0  0  0  0  0999 V2000
    1.9542   -1.9375    0.0000 C   0  0  0  0  0  0  0  0  0  0  0  0
    1.3042   -2.3125    0.0000 N   0  3  0  0  0  0  0  0  0  0  0  0
    1.9542   -1.1875    0.0000 C   0  0  0  0  0  0  0  0  0  0  0  0
    2.6042   -0.8042    0.0000 C   0  0  0  0  0  0  0  0  0  0  0  0
    1.3125   -0.8125    0.0000 N   0  0  0  0  0  0  0  0  0  0  0  0
    3.2542   -1.1792    0.0000 C   0  0  0  0  0  0  0  0  0  0  0  0
    3.9042   -0.8042    0.0000 N   0  0  0  0  0  0  0  0  0  0  0  0
    2.6042   -2.3125    0.0000 C   0  0  0  0  0  0  0  0  0  0  0  0
    0.6542   -1.9375    0.0000 O   0  5  0  0  0  0  0  0  0  0  0  0
    1.3042   -3.0625    0.0000 O   0  0  0  0  0  0  0  0  0  0  0  0
    3.2542   -1.9375    0.0000 C   0  0  0  0  0  0  0  0  0  0  0  0
    5.2042   -0.0542    0.0000 O   0  0  0  0  0  0  0  0  0  0  0  0
    3.9000   -0.0542    0.0000 C   0  0  0  0  0  0  0  0  0  0  0  0
    4.5542   -1.1792    0.0000 C   0  0  0  0  0  0  0  0  0  0  0  0
    0.6292   -1.1167    0.0000 C   0  0  0  0  0  0  0  0  0  0  0  0
    1.2292   -0.0667    0.0000 C   0  0  0  0  0  0  0  0  0  0  0  0
    5.2042   -0.8042    0.0000 C   0  0  0  0  0  0  0  0  0  0  0  0
    4.5500    0.3208    0.0000 C   0  0  0  0  0  0  0  0  0  0  0  0
    0.5000    0.0875    0.0000 C   0  0  0  0  0  0  0  0  0  0  0  0
    0.1250   -0.5625    0.0000 C   0  0  0  0  0  0  0  0  0  0  0  0
  2  1  1  0  0  0  0
  3  1  2  0  0  0  0
  4  3  1  0  0  0  0
  5  3  1  0  0  0  0
  6 11  1  0  0  0  0
  6  4  2  0  0  0  0
  7  6  1  0  0  0  0
  8  1  1  0  0  0  0
  9  2  1  0  0  0  0
 10  2  2  0  0  0  0
 11  8  2  0  0  0  0
 12 17  1  0  0  0  0
 13  7  1  0  0  0  0
 14  7  1  0  0  0  0
 15  5  1  0  0  0  0
 16  5  1  0  0  0  0
 17 14  1  0  0  0  0
 18 13  1  0  0  0  0
 18 12  1  0  0  0  0
 19 16  1  0  0  0  0
 19 20  1  0  0  0  0
 20 15  1  0  0  0  0
M  CHG  2   2   1   9  -1
M  END
>  <ID>
6135434

>  <Supplier>
ChemBridge

>  <clogP>
2.780000000000000e+000

>  <RB>
2

>  <tPSA>
5.884999999999997e+001

>  <Hacc>
3

>  <Hdon>
0

>  <LogSw>
-3.987000000000000e+000

>  <Group>
2

$$$$
5217505
 OpenBabel03312015312D

 24 25  0  0  0  0  0  0  0  0999 V2000
    3.1792    1.0833    0.0000 C   0  0  0  0  0  0  0  0  0  0  0  0
   -2.1208   -0.4542    0.0000 C   0  0  0  0  0  0  0  0  0  0  0  0
   -3.0000   -0.4542    0.0000 C   0  0  0  0  0  0  0  0  0  0  0  0
    3.1792    1.9625    0.0000 C   0  0  0  0  0  0  0  0  0  0  0  0
   -3.4458   -1.2167    0.0000 C   0  0  0  0  0  0  0  0  0  0  0  0
   -1.6625    0.3208    0.0000 N   0  0  0  0  0  0  0  0  0  0  0  0
   -2.1208   -1.9792    0.0000 C   0  0  0  0  0  0  0  0  0  0  0  0
    2.3000    1.0833    0.0000 C   0  0  0  0  0  0  0  0  0  0  0  0
   -1.6833   -1.2167    0.0000 C   0  0  0  0  0  0  0  0  0  0  0  0
    3.1792    0.2000    0.0000 F   0  0  0  0  0  0  0  0  0  0  0  0
    4.0542    1.0833    0.0000 F   0  0  0  0  0  0  0  0  0  0  0  0
   -4.3208   -1.2167    0.0000 O   0  0  0  0  0  0  0  0  0  0  0  0
   -3.0000   -1.9792    0.0000 C   0  0  0  0  0  0  0  0  0  0  0  0
    1.8542    0.3208    0.0000 O   0  0  0  0  0  0  0  0  0  0  0  0
   -0.7833    0.3208    0.0000 C   0  0  0  0  0  0  0  0  0  0  0  0
    3.9375    2.4000    0.0000 F   0  0  0  0  0  0  0  0  0  0  0  0
    2.4167    2.4000    0.0000 F   0  0  0  0  0  0  0  0  0  0  0  0
    0.9792    0.3208    0.0000 C   0  0  0  0  0  0  0  0  0  0  0  0
   -0.3458    1.0833    0.0000 C   0  0  0  0  0  0  0  0  0  0  0  0
   -0.3458   -0.4542    0.0000 C   0  0  0  0  0  0  0  0  0  0  0  0
    0.5375    1.0833    0.0000 C   0  0  0  0  0  0  0  0  0  0  0  0
    0.5375   -0.4542    0.0000 C   0  0  0  0  0  0  0  0  0  0  0  0
   -2.1208   -2.8542    0.0000 C   0  0  0  0  0  0  0  0  0  0  0  0
   -1.2458   -1.9792    0.0000 C   0  0  0  0  0  0  0  0  0  0  0  0
  2  6  1  0  0  0  0
  3  2  2  0  0  0  0
  4  1  1  0  0  0  0
  5  3  1  0  0  0  0
  5 13  1  0  0  0  0
  6 15  1  0  0  0  0
  7  9  1  0  0  0  0
  8  1  1  0  0  0  0
  9  2  1  0  0  0  0
 10  1  1  0  0  0  0
 11  1  1  0  0  0  0
 12  5  2  0  0  0  0
 13  7  1  0  0  0  0
 14  8  1  0  0  0  0
 15 20  1  0  0  0  0
 15 19  2  0  0  0  0
 16  4  1  0  0  0  0
 17  4  1  0  0  0  0
 18 14  1  0  0  0  0
 19 21  1  0  0  0  0
 20 22  2  0  0  0  0
 21 18  2  0  0  0  0
 22 18  1  0  0  0  0
 23  7  1  0  0  0  0
 24  7  1  0  0  0  0
M  END
>  <ID>
5217505

>  <Supplier>
ChemBridge

>  <clogP>
4.060000000000000e+000

>  <RB>
6

>  <tPSA>
3.833000000000000e+001

>  <Hacc>
2

>  <Hdon>
1

>  <LogSw>
-5.185000000000000e+000

>  <Group>
1

>  <Core>
185

$$$$
5217507
 OpenBabel03312015312D

 15 15  0  0  0  0  0  0  0  0999 V2000
    1.6000    1.5500    0.0000 C   0  0  0  0  0  0  0  0  0  0  0  0
    1.6000    0.3208    0.0000 S   0  0  0  0  0  0  0  0  0  0  0  0
    0.5500    2.1500    0.0000 C   0  0  0  0  0  0  0  0  0  0  0  0
    2.6500    2.1625    0.0000 C   0  0  0  0  0  0  0  0  0  0  0  0
    3.7667    1.6208    0.0000 O   0  0  0  0  0  0  0  0  0  0  0  0
    0.4667    3.3708    0.0000 O   0  0  0  0  0  0  0  0  0  0  0  0
    0.5375   -0.3000    0.0000 C   0  0  0  0  0  0  0  0  0  0  0  0
   -1.5958   -1.5292    0.0000 C   0  0  0  0  0  0  0  0  0  0  0  0
   -2.6625   -2.1500    0.0000 Cl  0  0  0  0  0  0  0  0  0  0  0  0
    0.5375   -1.5292    0.0000 C   0  0  0  0  0  0  0  0  0  0  0  0
   -0.5333    0.3208    0.0000 C   0  0  0  0  0  0  0  0  0  0  0  0
   -1.5958   -0.3000    0.0000 C   0  0  0  0  0  0  0  0  0  0  0  0
   -0.5333   -2.1500    0.0000 C   0  0  0  0  0  0  0  0  0  0  0  0
    2.7167    3.4000    0.0000 C   0  0  0  0  0  0  0  0  0  0  0  0
   -0.5625    1.6125    0.0000 C   0  0  0  0  0  0  0  0  0  0  0  0
  2  1  1  0  0  0  0
  3  1  1  0  0  0  0
  4  1  1  0  0  0  0
  5  4  2  0  0  0  0
  6  3  2  0  0  0  0
  7  2  1  0  0  0  0
  8 12  1  0  0  0  0
  8 13  2  0  0  0  0
  9  8  1  0  0  0  0
 10  7  2  0  0  0  0
 11  7  1  0  0  0  0
 12 11  2  0  0  0  0
 13 10  1  0  0  0  0
 14  4  1  0  0  0  0
 15  3  1  0  0  0  0
M  END
>  <ID>
5217507

>  <Supplier>
ChemBridge

>  <clogP>
2.110000000000000e+000

>  <RB>
4

>  <tPSA>
3.414000000000000e+001

>  <Hacc>
2

>  <Hdon>
0

>  <LogSw>
-2.773000000000000e+000

>  <Group>
1

$$$$
5217501
 OpenBabel03312015312D

 31 34  0  0  0  0  0  0  0  0999 V2000
    1.8000    1.0125    0.0000 N   0  3  0  0  0  0  0  0  0  0  0  0
    1.0542    0.4833    0.0000 C   0  0  0  0  0  0  0  0  0  0  0  0
    0.2792    1.0333    0.0000 N   0  0  0  0  0  0  0  0  0  0  0  0
    1.5042    1.9125    0.0000 C   0  0  0  0  0  0  0  0  0  0  0  0
    0.5667    1.9208    0.0000 C   0  0  0  0  0  0  0  0  0  0  0  0
   -1.8833   -1.3792    0.0000 C   0  0  3  0  0  0  0  0  0  0  0  0
   -0.8125   -0.1667    0.0000 C   0  0  0  0  0  0  0  0  0  0  0  0
   -0.6208    0.7458    0.0000 C   0  0  0  0  0  0  0  0  0  0  0  0
   -1.7000   -0.4792    0.0000 O   0  0  0  0  0  0  0  0  0  0  0  0
   -2.7833   -1.6542    0.0000 C   0  0  3  0  0  0  0  0  0  0  0  0
    1.0667   -0.4500    0.0000 C   0  0  0  0  0  0  0  0  0  0  0  0
   -2.9833   -2.6000    0.0000 C   0  0  0  0  0  0  0  0  0  0  0  0
   -1.1833   -2.0292    0.0000 C   0  0  0  0  0  0  0  0  0  0  0  0
    2.6667    0.7208    0.0000 C   0  0  0  0  0  0  0  0  0  0  0  0
   -0.5333   -0.9875    0.0000 O   0  0  0  0  0  0  0  0  0  0  0  0
    0.2792   -0.9292    0.0000 C   0  0  0  0  0  0  0  0  0  0  0  0
    1.9000   -0.8875    0.0000 C   0  0  0  0  0  0  0  0  0  0  0  0
   -3.4458   -1.0167    0.0000 C   0  0  0  0  0  0  0  0  0  0  0  0
    1.1167   -2.3167    0.0000 C   0  0  0  0  0  0  0  0  0  0  0  0
   -2.2708   -3.2375    0.0000 C   0  0  0  0  0  0  0  0  0  0  0  0
    0.3000   -1.8667    0.0000 C   0  0  0  0  0  0  0  0  0  0  0  0
    1.9167   -1.8292    0.0000 C   0  0  0  0  0  0  0  0  0  0  0  0
   -1.3708   -2.9500    0.0000 C   0  0  3  0  0  0  0  0  0  0  0  0
    1.1292   -3.2375    0.0000 F   0  0  0  0  0  0  0  0  0  0  0  0
    1.9667    2.7125    0.0000 C   0  0  0  0  0  0  0  0  0  0  0  0
    0.1167    2.7208    0.0000 C   0  0  0  0  0  0  0  0  0  0  0  0
   -4.3333   -1.2792    0.0000 C   0  0  0  0  0  0  0  0  0  0  0  0
   -3.2458   -0.1292    0.0000 C   0  0  0  0  0  0  0  0  0  0  0  0
   -0.7000   -3.5667    0.0000 C   0  0  0  0  0  0  0  0  0  0  0  0
    1.4875    3.5208    0.0000 C   0  0  0  0  0  0  0  0  0  0  0  0
    0.5875    3.5208    0.0000 C   0  0  0  0  0  0  0  0  0  0  0  0
  2  1  2  0  0  0  0
  3  2  1  0  0  0  0
  3  5  1  0  0  0  0
  4  1  1  0  0  0  0
  5  4  2  0  0  0  0
  6  9  1  0  0  0  0
  7  8  1  0  0  0  0
  8  3  1  0  0  0  0
  9  7  1  0  0  0  0
 10  6  1  0  0  0  0
 11  2  1  0  0  0  0
 12 10  1  0  0  0  0
 13  6  1  0  0  0  0
 14  1  1  0  0  0  0
 15  7  2  0  0  0  0
 16 11  1  0  0  0  0
 17 11  2  0  0  0  0
 18 10  1  0  0  0  0
 19 22  2  0  0  0  0
 20 23  1  0  0  0  0
 20 12  1  0  0  0  0
 21 16  2  0  0  0  0
 21 19  1  0  0  0  0
 22 17  1  0  0  0  0
 23 13  1  0  0  0  0
 24 19  1  0  0  0  0
 25  4  1  0  0  0  0
 26  5  1  0  0  0  0
 26 31  2  0  0  0  0
 27 18  1  0  0  0  0
 28 18  1  0  0  0  0
 29 23  1  0  0  0  0
 30 25  2  0  0  0  0
 31 30  1  0  0  0  0
M  CHG  1   1   1
M  END
>  <ID>
5217501

>  <Supplier>
ChemBridge

>  <clogP>
5.410000000000000e+000

>  <RB>
5

>  <tPSA>
3.511000000000000e+001

>  <Hacc>
4

>  <Hdon>
0

>  <LogSw>
-6.900000000000000e+000

>  <Group>
1

>  <Core>
333

$$$$
5217500
 OpenBabel03312015312D

 31 34  0  0  0  0  0  0  0  0999 V2000
    1.8000    1.0125    0.0000 N   0  3  0  0  0  0  0  0  0  0  0  0
    1.0542    0.4833    0.0000 C   0  0  0  0  0  0  0  0  0  0  0  0
    0.2792    1.0333    0.0000 N   0  0  0  0  0  0  0  0  0  0  0  0
    1.5042    1.9125    0.0000 C   0  0  0  0  0  0  0  0  0  0  0  0
    0.5667    1.9208    0.0000 C   0  0  0  0  0  0  0  0  0  0  0  0
   -1.8833   -1.3792    0.0000 C   0  0  3  0  0  0  0  0  0  0  0  0
   -0.8125   -0.1667    0.0000 C   0  0  0  0  0  0  0  0  0  0  0  0
   -0.6208    0.7458    0.0000 C   0  0  0  0  0  0  0  0  0  0  0  0
   -1.7000   -0.4792    0.0000 O   0  0  0  0  0  0  0  0  0  0  0  0
   -2.7833   -1.6542    0.0000 C   0  0  3  0  0  0  0  0  0  0  0  0
    1.0667   -0.4500    0.0000 C   0  0  0  0  0  0  0  0  0  0  0  0
   -2.9833   -2.6000    0.0000 C   0  0  0  0  0  0  0  0  0  0  0  0
   -1.1833   -2.0292    0.0000 C   0  0  0  0  0  0  0  0  0  0  0  0
    2.6667    0.7208    0.0000 C   0  0  0  0  0  0  0  0  0  0  0  0
   -0.5333   -0.9875    0.0000 O   0  0  0  0  0  0  0  0  0  0  0  0
    0.2792   -0.9292    0.0000 C   0  0  0  0  0  0  0  0  0  0  0  0
    1.9000   -0.8875    0.0000 C   0  0  0  0  0  0  0  0  0  0  0  0
   -3.4458   -1.0167    0.0000 C   0  0  0  0  0  0  0  0  0  0  0  0
    1.1167   -2.3167    0.0000 C   0  0  0  0  0  0  0  0  0  0  0  0
   -2.2708   -3.2375    0.0000 C   0  0  0  0  0  0  0  0  0  0  0  0
    0.3000   -1.8667    0.0000 C   0  0  0  0  0  0  0  0  0  0  0  0
    1.9167   -1.8292    0.0000 C   0  0  0  0  0  0  0  0  0  0  0  0
   -1.3708   -2.9500    0.0000 C   0  0  3  0  0  0  0  0  0  0  0  0
    1.1292   -3.2375    0.0000 Cl  0  0  0  0  0  0  0  0  0  0  0  0
    1.9667    2.7125    0.0000 C   0  0  0  0  0  0  0  0  0  0  0  0
    0.1167    2.7208    0.0000 C   0  0  0  0  0  0  0  0  0  0  0  0
   -4.3333   -1.2792    0.0000 C   0  0  0  0  0  0  0  0  0  0  0  0
   -3.2458   -0.1292    0.0000 C   0  0  0  0  0  0  0  0  0  0  0  0
   -0.7000   -3.5667    0.0000 C   0  0  0  0  0  0  0  0  0  0  0  0
    1.4875    3.5208    0.0000 C   0  0  0  0  0  0  0  0  0  0  0  0
    0.5875    3.5208    0.0000 C   0  0  0  0  0  0  0  0  0  0  0  0
  2  1  2  0  0  0  0
  3  2  1  0  0  0  0
  4  1  1  0  0  0  0
  5  4  2  0  0  0  0
  5  3  1  0  0  0  0
  6  9  1  0  0  0  0
  7  8  1  0  0  0  0
  8  3  1  0  0  0  0
  9  7  1  0  0  0  0
 10  6  1  0  0  0  0
 11  2  1  0  0  0  0
 12 10  1  0  0  0  0
 12 20  1  0  0  0  0
 13  6  1  0  0  0  0
 14  1  1  0  0  0  0
 15  7  2  0  0  0  0
 16 11  1  0  0  0  0
 17 11  2  0  0  0  0
 18 10  1  0  0  0  0
 19 22  2  0  0  0  0
 20 23  1  0  0  0  0
 21 16  2  0  0  0  0
 21 19  1  0  0  0  0
 22 17  1  0  0  0  0
 23 13  1  0  0  0  0
 24 19  1  0  0  0  0
 25  4  1  0  0  0  0
 26  5  1  0  0  0  0
 27 18  1  0  0  0  0
 28 18  1  0  0  0  0
 29 23  1  0  0  0  0
 30 25  2  0  0  0  0
 31 30  1  0  0  0  0
 31 26  2  0  0  0  0
M  CHG  1   1   1
M  END
>  <ID>
5217500

>  <Supplier>
ChemBridge

>  <clogP>
5.730000000000000e+000

>  <RB>
5

>  <tPSA>
3.511000000000000e+001

>  <Hacc>
2

>  <Hdon>
0

>  <LogSw>
-7.293000000000000e+000

>  <Group>
1

>  <Core>
333

$$$$
7705577
 OpenBabel03312015312D

 30 33  0  0  0  0  0  0  0  0999 V2000
    7.8917  -13.2292    0.0000 S   0  0  0  0  0  0  0  0  0  0  0  0
    7.9292   -7.6667    0.0000 C   0  0  0  0  0  0  0  0  0  0  0  0
    8.7417   -8.1542    0.0000 C   0  0  0  0  0  0  0  0  0  0  0  0
    7.1417   -8.1292    0.0000 C   0  0  0  0  0  0  0  0  0  0  0  0
    7.9292   -6.7417    0.0000 C   0  0  0  0  0  0  0  0  0  0  0  0
    7.9042  -12.3042    0.0000 C   0  0  0  0  0  0  0  0  0  0  0  0
    7.1417   -6.2792    0.0000 C   0  0  0  0  0  0  0  0  0  0  0  0
    8.8167  -13.2500    0.0000 O   0  0  0  0  0  0  0  0  0  0  0  0
    6.9667  -13.2167    0.0000 O   0  0  0  0  0  0  0  0  0  0  0  0
    7.8750  -14.1542    0.0000 C   0  0  0  0  0  0  0  0  0  0  0  0
    6.3542   -7.6667    0.0000 C   0  0  0  0  0  0  0  0  0  0  0  0
    6.3542   -6.7417    0.0000 C   0  0  0  0  0  0  0  0  0  0  0  0
    8.7292   -9.0792    0.0000 O   0  0  0  0  0  0  0  0  0  0  0  0
    9.5542   -7.6792    0.0000 O   0  0  0  0  0  0  0  0  0  0  0  0
    8.7125  -11.8542    0.0000 C   0  0  0  0  0  0  0  0  0  0  0  0
    7.1042  -11.8375    0.0000 C   0  0  0  0  0  0  0  0  0  0  0  0
    8.7417   -6.2667    0.0000 O   0  0  0  0  0  0  0  0  0  0  0  0
    7.9292   -9.5375    0.0000 C   0  0  0  0  0  0  0  0  0  0  0  0
    7.9167  -10.4542    0.0000 C   0  0  0  0  0  0  0  0  0  0  0  0
    7.1167  -10.9167    0.0000 C   0  0  0  0  0  0  0  0  0  0  0  0
    8.7167  -10.9292    0.0000 C   0  0  0  0  0  0  0  0  0  0  0  0
    5.5542   -8.1292    0.0000 C   0  0  0  0  0  0  0  0  0  0  0  0
    5.5542   -6.2792    0.0000 C   0  0  0  0  0  0  0  0  0  0  0  0
    8.6542  -14.6292    0.0000 C   0  0  0  0  0  0  0  0  0  0  0  0
    7.0625  -14.5917    0.0000 C   0  0  0  0  0  0  0  0  0  0  0  0
    4.7750   -6.7417    0.0000 C   0  0  0  0  0  0  0  0  0  0  0  0
    4.7750   -7.6667    0.0000 C   0  0  0  0  0  0  0  0  0  0  0  0
    7.0417  -15.5167    0.0000 C   0  0  0  0  0  0  0  0  0  0  0  0
    8.6417  -15.5500    0.0000 C   0  0  0  0  0  0  0  0  0  0  0  0
    7.8292  -16.0000    0.0000 C   0  0  0  0  0  0  0  0  0  0  0  0
  2  3  1  0  0  0  0
  3 13  1  0  0  0  0
  4  2  2  0  0  0  0
  5  2  1  0  0  0  0
  6  1  1  0  0  0  0
  7  5  2  0  0  0  0
  8  1  2  0  0  0  0
  9  1  2  0  0  0  0
 10  1  1  0  0  0  0
 11  4  1  0  0  0  0
 11 12  2  0  0  0  0
 12  7  1  0  0  0  0
 13 18  1  0  0  0  0
 14  3  2  0  0  0  0
 15  6  1  0  0  0  0
 16  6  2  0  0  0  0
 17  5  1  0  0  0  0
 18 19  1  0  0  0  0
 19 20  2  0  0  0  0
 19 21  1  0  0  0  0
 20 16  1  0  0  0  0
 21 15  2  0  0  0  0
 22 11  1  0  0  0  0
 23 12  1  0  0  0  0
 24 10  1  0  0  0  0
 25 10  2  0  0  0  0
 26 23  2  0  0  0  0
 27 22  2  0  0  0  0
 27 26  1  0  0  0  0
 28 25  1  0  0  0  0
 29 24  2  0  0  0  0
 29 30  1  0  0  0  0
 30 28  2  0  0  0  0
M  END
>  <ID>
7705577

>  <Supplier>
ChemBridge

>  <clogP>
5.624999999999995e+000

>  <RB>
6

>  <tPSA>
8.067000000000000e+001

>  <Hacc>
5

>  <Hdon>
1

>  <LogSw>
-6.881000000000000e+000

>  <Group>
1

$$$$
7255416
 OpenBabel03312015312D

 24 28  0  0  0  0  0  0  0  0999 V2000
   -2.9000    1.2458    0.0000 C   0  0  0  0  0  0  0  0  0  0  0  0
   -2.8333    0.3708    0.0000 C   0  0  0  0  0  0  0  0  0  0  0  0
   -3.7500    1.4500    0.0000 C   0  0  0  0  0  0  0  0  0  0  0  0
   -3.6125    0.0208    0.0000 S   0  0  0  0  0  0  0  0  0  0  0  0
   -2.2333    1.7708    0.0000 C   0  0  0  0  0  0  0  0  0  0  0  0
    0.1792    0.8833    0.0000 C   0  0  3  0  0  0  0  0  0  0  0  0
   -4.2208    0.6958    0.0000 C   0  0  0  0  0  0  0  0  0  0  0  0
    0.2667    2.2125    0.0000 C   0  0  3  0  0  0  0  0  0  0  0  0
    1.4000    1.4458    0.0000 C   0  0  3  0  0  0  0  0  0  0  0  0
    1.4375    2.1125    0.0000 C   0  0  3  0  0  0  0  0  0  0  0  0
   -0.1708    1.5458    0.0000 C   0  0  0  0  0  0  0  0  0  0  0  0
    0.9542    0.8333    0.0000 C   0  0  0  0  0  0  0  0  0  0  0  0
    0.9042    1.2458    0.0000 C   0  0  0  0  0  0  0  0  0  0  0  0
   -2.3625    2.6333    0.0000 O   0  0  0  0  0  0  0  0  0  0  0  0
   -1.4208    1.4625    0.0000 N   0  0  0  0  0  0  0  0  0  0  0  0
    0.9375    2.9708    0.0000 C   0  0  0  0  0  0  0  0  0  0  0  0
    1.1167    2.1625    0.0000 C   0  0  0  0  0  0  0  0  0  0  0  0
    2.2875    1.9458    0.0000 C   0  0  0  0  0  0  0  0  0  0  0  0
   -0.4708    0.3333    0.0000 C   0  0  0  0  0  0  0  0  0  0  0  0
   -1.2958    0.6125    0.0000 C   0  0  0  0  0  0  0  0  0  0  0  0
   -4.1958    2.2083    0.0000 C   0  0  0  0  0  0  0  0  0  0  0  0
   -5.0958    0.7125    0.0000 C   0  0  0  0  0  0  0  0  0  0  0  0
   -5.0625    2.2125    0.0000 C   0  0  0  0  0  0  0  0  0  0  0  0
   -5.5208    1.4833    0.0000 C   0  0  0  0  0  0  0  0  0  0  0  0
  2  1  2  0  0  0  0
  3  1  1  0  0  0  0
  4  2  1  0  0  0  0
  4  7  1  0  0  0  0
  5  1  1  0  0  0  0
  6 19  1  0  0  0  0
  7  3  2  0  0  0  0
  8 11  1  0  0  0  0
  8 16  1  0  0  0  0
  8 17  1  0  0  0  0
  9 12  1  0  0  0  0
 10 13  1  0  0  0  0
 11  6  1  0  0  0  0
 12  6  1  0  0  0  0
 13  6  1  0  0  0  0
 14  5  2  0  0  0  0
 15  5  1  0  0  0  0
 16 10  1  0  0  0  0
 17  9  1  0  0  0  0
 18 10  1  0  0  0  0
 18  9  1  0  0  0  0
 19 20  1  0  0  0  0
 20 15  1  0  0  0  0
 21  3  1  0  0  0  0
 22  7  1  0  0  0  0
 23 21  2  0  0  0  0
 24 23  1  0  0  0  0
 24 22  2  0  0  0  0
M  END
>  <ID>
7255416

>  <Supplier>
ChemBridge

>  <clogP>
5.890000000000000e+000

>  <RB>
4

>  <tPSA>
2.910000000000000e+001

>  <Hacc>
1

>  <Hdon>
1

>  <LogSw>
-6.706000000000000e+000

>  <Group>
3

$$$$
7255412
 OpenBabel03312015312D

 19 20  0  0  0  0  0  0  0  0999 V2000
    1.3042   -0.3667    0.0000 C   0  0  0  0  0  0  0  0  0  0  0  0
    1.7667   -1.0875    0.0000 S   0  0  0  0  0  0  0  0  0  0  0  0
    1.8667    0.2958    0.0000 N   0  0  0  0  0  0  0  0  0  0  0  0
    2.6667   -0.0292    0.0000 N   0  0  0  0  0  0  0  0  0  0  0  0
    2.6042   -0.8792    0.0000 C   0  0  0  0  0  0  0  0  0  0  0  0
    0.4292   -0.1875    0.0000 N   0  0  0  0  0  0  0  0  0  0  0  0
    0.1292    0.6208    0.0000 C   0  0  0  0  0  0  0  0  0  0  0  0
    0.7042    1.2833    0.0000 O   0  0  0  0  0  0  0  0  0  0  0  0
   -1.0125    1.6125    0.0000 O   0  0  0  0  0  0  0  0  0  0  0  0
   -0.7125    0.7708    0.0000 C   0  0  0  0  0  0  0  0  0  0  0  0
    3.3042   -1.4500    0.0000 C   0  0  0  0  0  0  0  0  0  0  0  0
   -1.8958    1.7958    0.0000 C   0  0  0  0  0  0  0  0  0  0  0  0
    4.1042   -1.1167    0.0000 O   0  0  0  0  0  0  0  0  0  0  0  0
   -2.4708    1.1333    0.0000 C   0  0  0  0  0  0  0  0  0  0  0  0
   -2.1500    2.6333    0.0000 C   0  0  0  0  0  0  0  0  0  0  0  0
    4.7875   -1.6542    0.0000 C   0  0  0  0  0  0  0  0  0  0  0  0
   -3.0125    2.8125    0.0000 C   0  0  0  0  0  0  0  0  0  0  0  0
   -3.3333    1.3458    0.0000 C   0  0  0  0  0  0  0  0  0  0  0  0
   -3.5958    2.1500    0.0000 C   0  0  0  0  0  0  0  0  0  0  0  0
  2  1  1  0  0  0  0
  3  1  2  0  0  0  0
  4  3  1  0  0  0  0
  5  2  1  0  0  0  0
  5  4  2  0  0  0  0
  6  1  1  0  0  0  0
  7  6  1  0  0  0  0
  8  7  2  0  0  0  0
  9 10  1  0  0  0  0
 10  7  1  0  0  0  0
 11  5  1  0  0  0  0
 12  9  1  0  0  0  0
 13 11  1  0  0  0  0
 14 12  2  0  0  0  0
 15 12  1  0  0  0  0
 16 13  1  0  0  0  0
 17 15  2  0  0  0  0
 18 14  1  0  0  0  0
 18 19  2  0  0  0  0
 19 17  1  0  0  0  0
M  END
>  <ID>
7255412

>  <Supplier>
ChemBridge

>  <clogP>
8.200000000000000e-001

>  <RB>
5

>  <tPSA>
7.334000000000000e+001

>  <Hacc>
5

>  <Hdon>
1

>  <LogSw>
-1.938000000000000e+000

>  <Group>
3

>  <Core>
246

$$$$
7255411
 OpenBabel03312015312D

 21 22  0  0  0  0  0  0  0  0999 V2000
   -4.0000    2.3208    0.0000 C   0  0  0  0  0  0  0  0  0  0  0  0
   -3.1458    1.8208    0.0000 C   0  0  0  0  0  0  0  0  0  0  0  0
   -2.2625    2.3458    0.0000 C   0  0  0  0  0  0  0  0  0  0  0  0
   -4.8833    1.8208    0.0000 N   0  0  0  0  0  0  0  0  0  0  0  0
   -4.0000    3.3458    0.0000 O   0  0  0  0  0  0  0  0  0  0  0  0
   -1.3833    1.8208    0.0000 C   0  0  0  0  0  0  0  0  0  0  0  0
   -5.7500    2.3333    0.0000 C   0  0  0  0  0  0  0  0  0  0  0  0
   -0.5000    2.3208    0.0000 C   0  0  0  0  0  0  0  0  0  0  0  0
   -6.6375    1.8125    0.0000 C   0  0  0  0  0  0  0  0  0  0  0  0
   -8.4042    0.7958    0.0000 C   0  0  0  0  0  0  0  0  0  0  0  0
    0.3792    1.8208    0.0000 C   0  0  0  0  0  0  0  0  0  0  0  0
    1.2500    2.3333    0.0000 Cl  0  0  0  0  0  0  0  0  0  0  0  0
   -6.6542    0.7833    0.0000 C   0  0  0  0  0  0  0  0  0  0  0  0
   -7.5167    2.3208    0.0000 C   0  0  0  0  0  0  0  0  0  0  0  0
   -7.5292    0.2833    0.0000 C   0  0  0  0  0  0  0  0  0  0  0  0
   -8.4042    1.8000    0.0000 C   0  0  0  0  0  0  0  0  0  0  0  0
   -9.2792    0.2958    0.0000 O   0  0  0  0  0  0  0  0  0  0  0  0
   -0.5000    0.3208    0.0000 C   0  0  0  0  0  0  0  0  0  0  0  0
   -1.3833    0.8208    0.0000 C   0  0  0  0  0  0  0  0  0  0  0  0
    0.3792    0.8000    0.0000 C   0  0  0  0  0  0  0  0  0  0  0  0
   -9.3000   -0.7167    0.0000 C   0  0  0  0  0  0  0  0  0  0  0  0
  2  1  1  0  0  0  0
  3  2  2  0  0  0  0
  4  1  1  0  0  0  0
  5  1  2  0  0  0  0
  6  3  1  0  0  0  0
  7  4  1  0  0  0  0
  8  6  1  0  0  0  0
  9  7  1  0  0  0  0
 10 16  2  0  0  0  0
 11  8  2  0  0  0  0
 12 11  1  0  0  0  0
 13  9  1  0  0  0  0
 14  9  2  0  0  0  0
 15 13  2  0  0  0  0
 15 10  1  0  0  0  0
 16 14  1  0  0  0  0
 17 10  1  0  0  0  0
 18 19  1  0  0  0  0
 19  6  2  0  0  0  0
 20 18  2  0  0  0  0
 20 11  1  0  0  0  0
 21 17  1  0  0  0  0
M  END
>  <ID>
7255411

>  <Supplier>
ChemBridge

>  <clogP>
4.200000000000000e+000

>  <RB>
4

>  <tPSA>
3.833000000000000e+001

>  <Hacc>
2

>  <Hdon>
1

>  <LogSw>
-4.988000000000000e+000

>  <Group>
2

>  <Core>
435

$$$$
7818757
 OpenBabel03312015312D

 27 28  0  0  0  0  0  0  0  0999 V2000
   -5.8208    1.2708    0.0000 C   0  0  0  0  0  0  0  0  0  0  0  0
    1.4917   -1.2417    0.0000 C   0  0  0  0  0  0  0  0  0  0  0  0
    2.9542   -3.7667    0.0000 N   0  0  0  0  0  0  0  0  0  0  0  0
   -2.9208    1.2708    0.0000 N   0  0  0  0  0  0  0  0  0  0  0  0
    5.8667   -3.7667    0.0000 C   0  0  0  0  0  0  0  0  0  0  0  0
    7.2917   -1.2417    0.0000 C   0  0  0  0  0  0  0  0  0  0  0  0
   -1.4083   -1.2417    0.0000 N   0  0  0  0  0  0  0  0  0  0  0  0
   10.1750   -1.2417    0.0000 C   0  0  0  0  0  0  0  0  0  0  0  0
   -7.2542    3.7708    0.0000 C   0  0  3  0  0  0  0  0  0  0  0  0
    2.9417    1.2625    0.0000 S   0  0  0  0  0  0  0  0  0  0  0  0
  -10.1792    3.7833    0.0000 O   0  0  0  0  0  0  0  0  0  0  0  0
   -7.2750   -1.2417    0.0000 O   0  0  0  0  0  0  0  0  0  0  0  0
    7.2917   -6.2750    0.0000 C   0  0  0  0  0  0  0  0  0  0  0  0
   11.6375   -3.7667    0.0000 C   0  0  0  0  0  0  0  0  0  0  0  0
  -11.6167    1.2708    0.0000 C   0  0  0  0  0  0  0  0  0  0  0  0
  -14.5042   -3.7417    0.0000 C   0  0  0  0  0  0  0  0  0  0  0  0
   10.1917   -6.2750    0.0000 C   0  0  0  0  0  0  0  0  0  0  0  0
    5.8542    1.2625    0.0000 O   0  0  0  0  0  0  0  0  0  0  0  0
  -15.9042   -6.2750    0.0000 Br  0  0  0  0  0  0  0  0  0  0  0  0
  -10.1542   -1.2250    0.0000 C   0  0  0  0  0  0  0  0  0  0  0  0
  -14.5375    1.2333    0.0000 C   0  0  0  0  0  0  0  0  0  0  0  0
  -16.0000   -1.2625    0.0000 C   0  0  0  0  0  0  0  0  0  0  0  0
  -11.6167   -3.7417    0.0000 C   0  0  0  0  0  0  0  0  0  0  0  0
   14.5500   -3.7667    0.0000 O   0  0  0  0  0  0  0  0  0  0  0  0
   -5.8458    6.2750    0.0000 C   0  0  0  0  0  0  0  0  0  0  0  0
    7.2917    3.7708    0.0000 C   0  0  0  0  0  0  0  0  0  0  0  0
   16.0000   -1.2250    0.0000 C   0  0  0  0  0  0  0  0  0  0  0  0
  2  7  1  0  0  0  0
  3  2  1  0  0  0  0
  4  1  1  0  0  0  0
  5  3  1  0  0  0  0
  6  5  2  0  0  0  0
  7  4  1  0  0  0  0
  8  6  1  0  0  0  0
  8 14  2  0  0  0  0
  9  1  1  0  0  0  0
 10  2  2  0  0  0  0
 11  9  1  0  0  0  0
 12  1  2  0  0  0  0
 13  5  1  0  0  0  0
 14 17  1  0  0  0  0
 15 11  1  0  0  0  0
 16 22  1  0  0  0  0
 16 23  2  0  0  0  0
 17 13  2  0  0  0  0
 18  6  1  0  0  0  0
 19 16  1  0  0  0  0
 20 15  2  0  0  0  0
 21 15  1  0  0  0  0
 22 21  2  0  0  0  0
 23 20  1  0  0  0  0
 24 14  1  0  0  0  0
 25  9  1  0  0  0  0
 26 18  1  0  0  0  0
 27 24  1  0  0  0  0
M  END
>  <ID>
7818757

>  <Supplier>
ChemBridge

>  <clogP>
3.360000000000000e+000

>  <RB>
5

>  <tPSA>
8.085000000000002e+001

>  <Hacc>
4

>  <Hdon>
3

>  <LogSw>
-5.381000000000000e+000

>  <Group>
1

>  <Core>
315

$$$$
7977340
 OpenBabel03312015312D

 34 36  0  0  0  0  0  0  0  0999 V2000
    3.2750    5.2917    0.0000 S   0  0  0  0  0  0  0  0  0  0  0  0
    4.0250    5.2917    0.0000 C   0  0  0  0  0  0  0  0  0  0  0  0
    7.2667    3.1708    0.0000 C   0  0  0  0  0  0  0  0  0  0  0  0
    5.5250    4.0000    0.0000 C   0  0  0  0  0  0  0  0  0  0  0  0
    6.2750    4.0000    0.0000 N   0  0  0  0  0  0  0  0  0  0  0  0
    3.2125    4.5417    0.0000 N   0  0  0  0  0  0  0  0  0  0  0  0
    6.5292    3.3000    0.0000 C   0  0  0  0  0  0  0  0  0  0  0  0
    4.4000    4.6500    0.0000 C   0  0  0  0  0  0  0  0  0  0  0  0
    7.7542    3.7458    0.0000 C   0  0  0  0  0  0  0  0  0  0  0  0
    5.1500    4.6500    0.0000 C   0  0  0  0  0  0  0  0  0  0  0  0
    3.3417    6.0417    0.0000 O   0  0  0  0  0  0  0  0  0  0  0  0
    2.5375    5.4292    0.0000 O   0  0  0  0  0  0  0  0  0  0  0  0
    4.4000    5.9500    0.0000 C   0  0  0  0  0  0  0  0  0  0  0  0
    5.1500    3.3583    0.0000 O   0  0  0  0  0  0  0  0  0  0  0  0
    7.5750    4.2292    0.0000 O   0  0  0  0  0  0  0  0  0  0  0  0
    5.5250    5.2917    0.0000 C   0  0  0  0  0  0  0  0  0  0  0  0
    5.1500    5.9500    0.0000 C   0  0  0  0  0  0  0  0  0  0  0  0
    2.4875    4.3542    0.0000 C   0  0  0  0  0  0  0  0  0  0  0  0
    8.4917    3.6125    0.0000 N   0  0  0  0  0  0  0  0  0  0  0  0
    1.0375    3.9833    0.0000 C   0  0  0  0  0  0  0  0  0  0  0  0
    7.5292    2.4625    0.0000 C   0  0  0  0  0  0  0  0  0  0  0  0
    2.2917    3.6458    0.0000 C   0  0  0  0  0  0  0  0  0  0  0  0
    1.9542    4.8875    0.0000 C   0  0  0  0  0  0  0  0  0  0  0  0
    1.2292    4.6917    0.0000 C   0  0  0  0  0  0  0  0  0  0  0  0
    1.5667    3.4458    0.0000 C   0  0  0  0  0  0  0  0  0  0  0  0
    6.0500    2.7250    0.0000 C   0  0  0  0  0  0  0  0  0  0  0  0
    9.9792    4.7792    0.0000 O   0  0  0  0  0  0  0  0  0  0  0  0
    4.0250    6.5917    0.0000 C   0  0  0  0  0  0  0  0  0  0  0  0
    8.8667    4.2542    0.0000 C   0  0  0  0  0  0  0  0  0  0  0  0
    9.6042    4.1292    0.0000 C   0  0  0  0  0  0  0  0  0  0  0  0
    0.3125    3.7833    0.0000 C   0  0  0  0  0  0  0  0  0  0  0  0
   10.7292    4.7792    0.0000 C   0  0  0  0  0  0  0  0  0  0  0  0
    7.0417    1.8958    0.0000 C   0  0  0  0  0  0  0  0  0  0  0  0
    6.3042    2.0208    0.0000 C   0  0  0  0  0  0  0  0  0  0  0  0
  2  1  1  0  0  0  0
  3  7  1  0  0  0  0
  4 10  1  0  0  0  0
  5  4  1  0  0  0  0
  6  1  1  0  0  0  0
  7  5  1  0  0  0  0
  8  2  1  0  0  0  0
  9  3  1  0  0  0  0
 10  8  2  0  0  0  0
 10 16  1  0  0  0  0
 11  1  2  0  0  0  0
 12  1  2  0  0  0  0
 13  2  2  0  0  0  0
 14  4  2  0  0  0  0
 15  9  2  0  0  0  0
 16 17  2  0  0  0  0
 17 13  1  0  0  0  0
 18  6  1  0  0  0  0
 19  9  1  0  0  0  0
 20 24  2  0  0  0  0
 20 25  1  0  0  0  0
 21  3  2  0  0  0  0
 21 33  1  0  0  0  0
 22 18  1  0  0  0  0
 23 18  2  0  0  0  0
 24 23  1  0  0  0  0
 25 22  2  0  0  0  0
 26  7  2  0  0  0  0
 27 30  1  0  0  0  0
 28 13  1  0  0  0  0
 29 19  1  0  0  0  0
 30 29  1  0  0  0  0
 31 20  1  0  0  0  0
 32 27  1  0  0  0  0
 33 34  2  0  0  0  0
 34 26  1  0  0  0  0
M  END
>  <ID>
7977340

>  <Supplier>
ChemBridge

>  <clogP>
3.895000000000000e+000

>  <RB>
7

>  <tPSA>
1.136000000000000e+002

>  <Hacc>
5

>  <Hdon>
3

>  <LogSw>
-6.036000000000001e+000

>  <Group>
1

>  <Core>
141

$$$$
5484910
 OpenBabel03312015312D

 25 26  0  0  0  0  0  0  0  0999 V2000
    4.5500   -1.2500    0.0000 C   0  0  0  0  0  0  0  0  0  0  0  0
    3.9000   -1.6167    0.0000 C   0  0  0  0  0  0  0  0  0  0  0  0
    2.6000   -1.6167    0.0000 N   0  0  0  0  0  0  0  0  0  0  0  0
    1.3042   -1.6167    0.0000 C   0  0  0  0  0  0  0  0  0  0  0  0
    1.3000    0.6333    0.0000 C   0  0  0  0  0  0  0  0  0  0  0  0
    5.2000   -1.6167    0.0000 C   0  0  0  0  0  0  0  0  0  0  0  0
    3.2500   -1.2500    0.0000 N   0  0  0  0  0  0  0  0  0  0  0  0
    0.6500   -1.2375    0.0000 C   0  0  0  0  0  0  0  0  0  0  0  0
    0.6500   -0.4875    0.0000 O   0  0  0  0  0  0  0  0  0  0  0  0
    3.9000   -2.3667    0.0000 O   0  0  0  0  0  0  0  0  0  0  0  0
    1.9542   -1.2500    0.0000 C   0  0  0  0  0  0  0  0  0  0  0  0
    1.9500    1.0000    0.0000 O   0  0  0  0  0  0  0  0  0  0  0  0
    1.3000   -0.1042    0.0000 C   0  0  0  0  0  0  0  0  0  0  0  0
    0.6500    1.0000    0.0000 O   0  0  0  0  0  0  0  0  0  0  0  0
    5.2000   -2.3667    0.0000 O   0  0  0  0  0  0  0  0  0  0  0  0
    4.5500   -0.5000    0.0000 C   0  0  0  0  0  0  0  0  0  0  0  0
    1.3042   -2.3667    0.0000 C   0  0  0  0  0  0  0  0  0  0  0  0
    5.8500   -1.2500    0.0000 C   0  0  0  0  0  0  0  0  0  0  0  0
    0.0000   -1.6167    0.0000 C   0  0  0  0  0  0  0  0  0  0  0  0
    0.6500    1.7500    0.0000 C   0  0  0  0  0  0  0  0  0  0  0  0
    5.2000   -0.1167    0.0000 C   0  0  0  0  0  0  0  0  0  0  0  0
    0.0000    2.1208    0.0000 C   0  0  0  0  0  0  0  0  0  0  0  0
    0.6500   -2.7500    0.0000 C   0  0  0  0  0  0  0  0  0  0  0  0
    5.8500   -0.5000    0.0000 C   0  0  0  0  0  0  0  0  0  0  0  0
    0.0000   -2.3667    0.0000 C   0  0  0  0  0  0  0  0  0  0  0  0
  2  1  1  0  0  0  0
  3  7  1  0  0  0  0
  4 11  1  0  0  0  0
  5 13  1  0  0  0  0
  6  1  1  0  0  0  0
  7  2  1  0  0  0  0
  8  4  1  0  0  0  0
  9  8  1  0  0  0  0
 10  2  2  0  0  0  0
 11  3  2  0  0  0  0
 12  5  2  0  0  0  0
 13  9  1  0  0  0  0
 14  5  1  0  0  0  0
 15  6  1  0  0  0  0
 16  1  2  0  0  0  0
 17  4  2  0  0  0  0
 18  6  2  0  0  0  0
 18 24  1  0  0  0  0
 19  8  2  0  0  0  0
 19 25  1  0  0  0  0
 20 14  1  0  0  0  0
 21 16  1  0  0  0  0
 22 20  1  0  0  0  0
 23 17  1  0  0  0  0
 24 21  2  0  0  0  0
 25 23  2  0  0  0  0
M  END
>  <ID>
5484910

>  <Supplier>
ChemBridge

>  <clogP>
3.270000000000000e+000

>  <RB>
6

>  <tPSA>
9.722000000000000e+001

>  <Hacc>
6

>  <Hdon>
2

>  <LogSw>
-3.909000000000000e+000

>  <Group>
1

>  <Core>
314

$$$$
5484911
 OpenBabel03312015312D

 22 23  0  0  0  0  0  0  0  0999 V2000
    4.9917    2.0833    0.0000 C   0  0  3  0  0  0  0  0  0  0  0  0
    5.6417    1.7000    0.0000 C   0  0  3  0  0  0  0  0  0  0  0  0
    1.7417    3.2083    0.0000 N   0  3  0  0  0  0  0  0  0  0  0  0
    6.2917    2.0833    0.0000 C   0  0  3  0  0  0  0  0  0  0  0  0
    4.9917    2.8333    0.0000 O   0  0  0  0  0  0  0  0  0  0  0  0
    6.2917    2.8333    0.0000 C   0  0  3  0  0  0  0  0  0  0  0  0
    5.6417    3.2083    0.0000 C   0  0  3  0  0  0  0  0  0  0  0  0
    4.3417    1.7000    0.0000 N   0  0  0  0  0  0  0  0  0  0  0  0
    2.3917    2.8333    0.0000 C   0  0  0  0  0  0  0  0  0  0  0  0
    3.6917    2.0833    0.0000 C   0  0  0  0  0  0  0  0  0  0  0  0
    2.3917    2.0833    0.0000 C   0  0  0  0  0  0  0  0  0  0  0  0
    3.0417    1.7000    0.0000 C   0  0  0  0  0  0  0  0  0  0  0  0
    1.7417    3.9583    0.0000 O   0  5  0  0  0  0  0  0  0  0  0  0
    1.0917    2.8333    0.0000 O   0  0  0  0  0  0  0  0  0  0  0  0
    3.0417    3.2083    0.0000 C   0  0  0  0  0  0  0  0  0  0  0  0
    3.6917    2.8333    0.0000 C   0  0  0  0  0  0  0  0  0  0  0  0
    5.6417    0.9500    0.0000 O   0  0  0  0  0  0  0  0  0  0  0  0
    6.9417    1.7000    0.0000 O   0  0  0  0  0  0  0  0  0  0  0  0
    6.9417    3.2083    0.0000 O   0  0  0  0  0  0  0  0  0  0  0  0
    5.6417    3.9583    0.0000 C   0  0  0  0  0  0  0  0  0  0  0  0
    4.9917    4.3167    0.0000 O   0  0  0  0  0  0  0  0  0  0  0  0
    3.0417    0.9500    0.0000 C   0  0  0  0  0  0  0  0  0  0  0  0
  2  1  1  0  0  0  0
  3  9  1  0  0  0  0
  4  2  1  0  0  0  0
  4  6  1  0  0  0  0
  5  1  1  0  0  0  0
  6  7  1  0  0  0  0
  7  5  1  0  0  0  0
  8  1  1  0  0  0  0
  9 15  1  0  0  0  0
 10  8  1  0  0  0  0
 11 12  1  0  0  0  0
 11  9  2  0  0  0  0
 12 10  2  0  0  0  0
 13  3  1  0  0  0  0
 14  3  2  0  0  0  0
 15 16  2  0  0  0  0
 16 10  1  0  0  0  0
 17  2  1  0  0  0  0
 18  4  1  0  0  0  0
 19  6  1  0  0  0  0
 20  7  1  0  0  0  0
 21 20  1  0  0  0  0
 22 12  1  0  0  0  0
M  CHG  2   3   1  13  -1
M  END
>  <ID>
5484911

>  <Supplier>
ChemBridge

>  <clogP>
6.300000000000000e-001

>  <RB>
3

>  <tPSA>
1.453200000000000e+002

>  <Hacc>
7

>  <Hdon>
5

>  <LogSw>
-2.030000000000000e+000

>  <Group>
1

$$$$
5484912
 OpenBabel03312015312D

 19 19  0  0  0  0  0  0  0  0999 V2000
    0.5667   -0.4042    0.0000 C   0  0  0  0  0  0  0  0  0  0  0  0
    1.0500   -0.1292    0.0000 C   0  0  0  0  0  0  0  0  0  0  0  0
    0.0875   -0.1292    0.0000 C   0  0  0  0  0  0  0  0  0  0  0  0
    0.5667   -0.9500    0.0000 C   0  0  0  0  0  0  0  0  0  0  0  0
    1.0500    0.4500    0.0000 C   0  0  0  0  0  0  0  0  0  0  0  0
    0.5667   -1.5042    0.0000 N   0  0  0  0  0  0  0  0  0  0  0  0
    1.5292    0.7333    0.0000 C   0  0  0  0  0  0  0  0  0  0  0  0
    1.5292    1.2708    0.0000 C   0  0  0  0  0  0  0  0  0  0  0  0
    0.0875    0.4500    0.0000 S   0  0  0  0  0  0  0  0  0  0  0  0
    0.5667    0.7125    0.0000 C   0  0  0  0  0  0  0  0  0  0  0  0
   -0.3958   -0.3875    0.0000 N   0  0  0  0  0  0  0  0  0  0  0  0
    1.0500    1.5500    0.0000 C   0  0  0  0  0  0  0  0  0  0  0  0
    0.5667    1.2708    0.0000 C   0  0  0  0  0  0  0  0  0  0  0  0
    2.0292    0.4708    0.0000 O   0  0  0  0  0  0  0  0  0  0  0  0
    1.0500    2.1125    0.0000 O   0  0  0  0  0  0  0  0  0  0  0  0
    2.4875    0.7708    0.0000 C   0  0  0  0  0  0  0  0  0  0  0  0
    0.5667    2.3958    0.0000 C   0  0  0  0  0  0  0  0  0  0  0  0
    0.5667    2.9583    0.0000 C   0  0  0  0  0  0  0  0  0  0  0  0
    2.9667    0.5125    0.0000 C   0  0  0  0  0  0  0  0  0  0  0  0
  2  1  2  0  0  0  0
  3  1  1  0  0  0  0
  4  1  1  0  0  0  0
  5  2  1  0  0  0  0
  6  4  3  0  0  0  0
  7  5  1  0  0  0  0
  8  7  2  0  0  0  0
  8 12  1  0  0  0  0
  9  3  2  0  0  0  0
 10  5  2  0  0  0  0
 11  3  1  0  0  0  0
 12 13  2  0  0  0  0
 13 10  1  0  0  0  0
 14  7  1  0  0  0  0
 15 12  1  0  0  0  0
 16 14  1  0  0  0  0
 17 15  1  0  0  0  0
 18 17  1  0  0  0  0
 19 16  1  0  0  0  0
M  END
>  <ID>
5484912

>  <Supplier>
ChemBridge

>  <clogP>
3.050000000000000e+000

>  <RB>
2

>  <tPSA>
6.827000000000000e+001

>  <Hacc>
3

>  <Hdon>
1

>  <LogSw>
-4.086000000000000e+000

>  <Group>
1

>  <Core>
109

$$$$
7450068
 OpenBabel03312015312D

 22 24  0  0  0  0  0  0  0  0999 V2000
    6.5417   -1.5292    0.0000 C   0  0  0  0  0  0  0  0  0  0  0  0
    5.9125   -0.9917    0.0000 O   0  0  0  0  0  0  0  0  0  0  0  0
    3.3167    0.3958    0.0000 N   0  0  0  0  0  0  0  0  0  0  0  0
    6.2292   -0.2292    0.0000 C   0  0  0  0  0  0  0  0  0  0  0  0
    6.4792   -2.3500    0.0000 C   0  0  0  0  0  0  0  0  0  0  0  0
    7.2417   -1.0917    0.0000 C   0  0  0  0  0  0  0  0  0  0  0  0
    4.9667    0.4458    0.0000 N   0  0  0  0  0  0  0  0  0  0  0  0
    7.0500   -0.2917    0.0000 C   0  0  0  0  0  0  0  0  0  0  0  0
    5.7917    0.4708    0.0000 C   0  0  0  0  0  0  0  0  0  0  0  0
    3.7042    1.1208    0.0000 C   0  0  0  0  0  0  0  0  0  0  0  0
    3.7542   -0.3042    0.0000 C   0  0  0  0  0  0  0  0  0  0  0  0
    2.4917    0.3708    0.0000 C   0  0  0  0  0  0  0  0  0  0  0  0
    7.1792   -2.8125    0.0000 O   0  0  0  0  0  0  0  0  0  0  0  0
    4.5292    1.1458    0.0000 C   0  0  0  0  0  0  0  0  0  0  0  0
    4.5750   -0.2792    0.0000 C   0  0  0  0  0  0  0  0  0  0  0  0
    5.7417   -2.7000    0.0000 O   0  0  0  0  0  0  0  0  0  0  0  0
    2.0625    1.0708    0.0000 C   0  0  0  0  0  0  0  0  0  0  0  0
    2.1125   -0.3542    0.0000 C   0  0  0  0  0  0  0  0  0  0  0  0
    5.6667   -3.5167    0.0000 C   0  0  0  0  0  0  0  0  0  0  0  0
    1.2375    1.0458    0.0000 C   0  0  0  0  0  0  0  0  0  0  0  0
    1.2792   -0.3875    0.0000 C   0  0  0  0  0  0  0  0  0  0  0  0
    0.8417    0.3125    0.0000 C   0  0  0  0  0  0  0  0  0  0  0  0
  2  1  1  0  0  0  0
  3 11  1  0  0  0  0
  4  2  1  0  0  0  0
  5  1  1  0  0  0  0
  6  1  2  0  0  0  0
  7  9  1  0  0  0  0
  8  6  1  0  0  0  0
  8  4  2  0  0  0  0
  9  4  1  0  0  0  0
 10 14  1  0  0  0  0
 10  3  1  0  0  0  0
 11 15  1  0  0  0  0
 12  3  1  0  0  0  0
 13  5  2  0  0  0  0
 14  7  1  0  0  0  0
 15  7  1  0  0  0  0
 16  5  1  0  0  0  0
 17 12  1  0  0  0  0
 18 12  2  0  0  0  0
 19 16  1  0  0  0  0
 20 17  2  0  0  0  0
 20 22  1  0  0  0  0
 21 18  1  0  0  0  0
 22 21  2  0  0  0  0
M  END
>  <ID>
7450068

>  <Supplier>
ChemBridge

>  <clogP>
2.460000000000000e+000

>  <RB>
4

>  <tPSA>
4.592000000000000e+001

>  <Hacc>
4

>  <Hdon>
0

>  <LogSw>
-2.450000000000000e+000

>  <Group>
3

>  <Core>
162

$$$$
7976022
 OpenBabel03312015312D

 26 27  0  0  0  0  0  0  0  0999 V2000
    1.7042    1.4833    0.0000 S   0  0  0  0  0  0  0  0  0  0  0  0
    2.4542    1.4833    0.0000 C   0  0  0  0  0  0  0  0  0  0  0  0
    0.9625    1.3458    0.0000 O   0  0  0  0  0  0  0  0  0  0  0  0
    1.7667    0.7333    0.0000 O   0  0  0  0  0  0  0  0  0  0  0  0
    5.8292    2.1333    0.0000 C   0  0  0  0  0  0  0  0  0  0  0  0
    8.0792    2.1333    0.0000 C   0  0  0  0  0  0  0  0  0  0  0  0
    6.2042    2.7833    0.0000 N   0  0  0  0  0  0  0  0  0  0  0  0
    1.5042    2.2083    0.0000 N   0  0  0  0  0  0  0  0  0  0  0  0
    8.4542    1.4833    0.0000 C   0  0  0  0  0  0  0  0  0  0  0  0
    7.3292    2.1333    0.0000 C   0  0  0  0  0  0  0  0  0  0  0  0
    6.9542    2.7833    0.0000 C   0  0  0  0  0  0  0  0  0  0  0  0
    6.2042    1.4833    0.0000 O   0  0  0  0  0  0  0  0  0  0  0  0
    9.2042    1.4833    0.0000 O   0  0  0  0  0  0  0  0  0  0  0  0
    2.8292    0.8333    0.0000 C   0  0  0  0  0  0  0  0  0  0  0  0
    2.8292    2.1333    0.0000 C   0  0  0  0  0  0  0  0  0  0  0  0
    5.0792    2.1333    0.0000 C   0  0  0  0  0  0  0  0  0  0  0  0
    3.9542    1.4833    0.0000 C   0  0  0  0  0  0  0  0  0  0  0  0
    3.5792    0.8333    0.0000 C   0  0  0  0  0  0  0  0  0  0  0  0
    3.5792    2.1333    0.0000 C   0  0  0  0  0  0  0  0  0  0  0  0
    4.7042    1.4833    0.0000 C   0  0  0  0  0  0  0  0  0  0  0  0
    8.4542    2.7833    0.0000 C   0  0  0  0  0  0  0  0  0  0  0  0
    8.0792    3.4250    0.0000 C   0  0  0  0  0  0  0  0  0  0  0  0
    7.3292    3.4250    0.0000 C   0  0  0  0  0  0  0  0  0  0  0  0
    8.0792    0.8333    0.0000 C   0  0  0  0  0  0  0  0  0  0  0  0
    0.7792    2.3958    0.0000 C   0  0  0  0  0  0  0  0  0  0  0  0
    0.5917    3.1208    0.0000 C   0  0  0  0  0  0  0  0  0  0  0  0
  2  1  1  0  0  0  0
  3  1  2  0  0  0  0
  4  1  2  0  0  0  0
  5 16  1  0  0  0  0
  6 10  1  0  0  0  0
  7  5  1  0  0  0  0
  8  1  1  0  0  0  0
  9  6  1  0  0  0  0
 10 11  2  0  0  0  0
 11  7  1  0  0  0  0
 12  5  2  0  0  0  0
 13  9  2  0  0  0  0
 14  2  2  0  0  0  0
 15  2  1  0  0  0  0
 16 20  1  0  0  0  0
 17 19  1  0  0  0  0
 18 14  1  0  0  0  0
 18 17  2  0  0  0  0
 19 15  2  0  0  0  0
 20 17  1  0  0  0  0
 21 22  1  0  0  0  0
 21  6  2  0  0  0  0
 22 23  2  0  0  0  0
 23 11  1  0  0  0  0
 24  9  1  0  0  0  0
 25  8  1  0  0  0  0
 26 25  1  0  0  0  0
M  END
>  <ID>
7976022

>  <Supplier>
ChemBridge

>  <clogP>
2.474000000000000e+000

>  <RB>
6

>  <tPSA>
9.233999999999998e+001

>  <Hacc>
5

>  <Hdon>
2

>  <LogSw>
-4.043000000000000e+000

>  <Group>
2

>  <Core>
484

$$$$
4010684
 OpenBabel03312015312D

 12 12  0  0  0  0  0  0  0  0999 V2000
    5.0250   -3.0750    0.0000 N   0  0  0  0  0  0  0  0  0  0  0  0
    4.2792   -2.7250    0.0000 C   0  0  0  0  0  0  0  0  0  0  0  0
    5.6667   -2.5417    0.0000 C   0  0  0  0  0  0  0  0  0  0  0  0
    6.5000   -2.5500    0.0000 C   0  0  0  0  0  0  0  0  0  0  0  0
    4.2625   -1.8917    0.0000 O   0  0  0  0  0  0  0  0  0  0  0  0
    6.9167   -1.8375    0.0000 O   0  0  0  0  0  0  0  0  0  0  0  0
    6.9167   -3.2625    0.0000 O   0  0  0  0  0  0  0  0  0  0  0  0
    5.2125   -3.8667    0.0000 C   0  0  0  0  0  0  0  0  0  0  0  0
    3.5417   -3.0917    0.0000 C   0  0  0  0  0  0  0  0  0  0  0  0
    4.7042   -4.5167    0.0000 C   0  0  0  0  0  0  0  0  0  0  0  0
    3.3625   -3.8917    0.0000 C   0  0  0  0  0  0  0  0  0  0  0  0
    3.8792   -4.5292    0.0000 C   0  0  0  0  0  0  0  0  0  0  0  0
  2  1  1  0  0  0  0
  3  1  1  0  0  0  0
  4  3  1  0  0  0  0
  5  2  2  0  0  0  0
  6  4  2  0  0  0  0
  7  4  1  0  0  0  0
  8  1  1  0  0  0  0
  9  2  1  0  0  0  0
 10  8  1  0  0  0  0
 11  9  1  0  0  0  0
 11 12  1  0  0  0  0
 12 10  1  0  0  0  0
M  END
>  <ID>
4010684

>  <Supplier>
ChemBridge

>  <clogP>
7.600000000000000e-001

>  <RB>
2

>  <tPSA>
5.761000000000000e+001

>  <Hacc>
3

>  <Hdon>
1

>  <LogSw>
-9.200000000000002e-001

>  <Group>
3

$$$$
4010685
 OpenBabel03312015312D

 13 13  0  0  0  0  0  0  0  0999 V2000
    4.5542   -2.8917    0.0000 N   0  0  0  0  0  0  0  0  0  0  0  0
    3.8042   -2.5417    0.0000 C   0  0  0  0  0  0  0  0  0  0  0  0
    6.0000   -2.8917    0.0000 C   0  0  0  0  0  0  0  0  0  0  0  0
    6.7167   -2.4792    0.0000 C   0  0  0  0  0  0  0  0  0  0  0  0
    5.2792   -2.4667    0.0000 C   0  0  0  0  0  0  0  0  0  0  0  0
    3.7917   -1.7042    0.0000 O   0  0  0  0  0  0  0  0  0  0  0  0
    6.7167   -1.6417    0.0000 O   0  0  0  0  0  0  0  0  0  0  0  0
    7.4292   -2.8917    0.0000 O   0  0  0  0  0  0  0  0  0  0  0  0
    4.7542   -3.6792    0.0000 C   0  0  0  0  0  0  0  0  0  0  0  0
    3.0667   -2.9167    0.0000 C   0  0  0  0  0  0  0  0  0  0  0  0
    4.2542   -4.3417    0.0000 C   0  0  0  0  0  0  0  0  0  0  0  0
    2.9042   -3.7250    0.0000 C   0  0  0  0  0  0  0  0  0  0  0  0
    3.4292   -4.3542    0.0000 C   0  0  0  0  0  0  0  0  0  0  0  0
  2  1  1  0  0  0  0
  3  5  1  0  0  0  0
  4  3  1  0  0  0  0
  5  1  1  0  0  0  0
  6  2  2  0  0  0  0
  7  4  2  0  0  0  0
  8  4  1  0  0  0  0
  9  1  1  0  0  0  0
 10  2  1  0  0  0  0
 11  9  1  0  0  0  0
 12 10  1  0  0  0  0
 13 11  1  0  0  0  0
 13 12  1  0  0  0  0
M  END
>  <ID>
4010685

>  <Supplier>
ChemBridge

>  <clogP>
7.400000000000000e-001

>  <RB>
3

>  <tPSA>
5.761000000000000e+001

>  <Hacc>
3

>  <Hdon>
1

>  <LogSw>
-1.083000000000000e+000

>  <Group>
3

$$$$
5428119
 OpenBabel03312015312D

 22 24  0  0  0  0  0  0  0  0999 V2000
   -1.9083    2.1333    0.0000 N   0  0  0  0  0  0  0  0  0  0  0  0
   -3.2625    2.1333    0.0000 C   0  0  0  0  0  0  0  0  0  0  0  0
   -2.5833    1.7500    0.0000 C   0  0  0  0  0  0  0  0  0  0  0  0
   -3.2625    2.9458    0.0000 C   0  0  0  0  0  0  0  0  0  0  0  0
   -1.2333    1.7500    0.0000 C   0  0  0  0  0  0  0  0  0  0  0  0
   -1.9083    2.9458    0.0000 C   0  0  0  0  0  0  0  0  0  0  0  0
   -2.5833    3.3125    0.0000 C   0  0  0  0  0  0  0  0  0  0  0  0
   -0.5958    2.2125    0.0000 C   0  0  0  0  0  0  0  0  0  0  0  0
    0.7667    3.0000    0.0000 C   0  0  0  0  0  0  0  0  0  0  0  0
   -0.5958    2.9958    0.0000 C   0  0  0  0  0  0  0  0  0  0  0  0
    0.0875    1.8125    0.0000 C   0  0  0  0  0  0  0  0  0  0  0  0
    0.7667    2.2125    0.0000 C   0  0  0  0  0  0  0  0  0  0  0  0
    0.0875    3.3958    0.0000 C   0  0  0  0  0  0  0  0  0  0  0  0
    1.4500    3.4000    0.0000 O   0  0  0  0  0  0  0  0  0  0  0  0
   -3.9333    1.7500    0.0000 C   0  0  0  0  0  0  0  0  0  0  0  0
   -3.9333    3.3125    0.0000 C   0  0  0  0  0  0  0  0  0  0  0  0
    2.1292    3.0000    0.0000 C   0  0  0  0  0  0  0  0  0  0  0  0
    2.8042    3.4000    0.0000 C   0  0  0  0  0  0  0  0  0  0  0  0
    3.4875    3.0000    0.0000 C   0  0  0  0  0  0  0  0  0  0  0  0
   -4.6000    2.1458    0.0000 C   0  0  0  0  0  0  0  0  0  0  0  0
    4.1667    3.4000    0.0000 C   0  0  0  0  0  0  0  0  0  0  0  0
   -4.6000    2.9208    0.0000 C   0  0  0  0  0  0  0  0  0  0  0  0
  2  3  1  0  0  0  0
  2  4  2  0  0  0  0
  3  1  1  0  0  0  0
  4  7  1  0  0  0  0
  5  1  1  0  0  0  0
  6  1  1  0  0  0  0
  7  6  1  0  0  0  0
  8  5  1  0  0  0  0
  9 12  1  0  0  0  0
 10  8  2  0  0  0  0
 11  8  1  0  0  0  0
 12 11  2  0  0  0  0
 13 10  1  0  0  0  0
 13  9  2  0  0  0  0
 14  9  1  0  0  0  0
 15  2  1  0  0  0  0
 16  4  1  0  0  0  0
 17 14  1  0  0  0  0
 18 17  1  0  0  0  0
 19 18  1  0  0  0  0
 20 15  2  0  0  0  0
 20 22  1  0  0  0  0
 21 19  1  0  0  0  0
 22 16  2  0  0  0  0
M  END
>  <ID>
5428119

>  <Supplier>
ChemBridge

>  <clogP>
5.140000000000000e+000

>  <RB>
4

>  <tPSA>
1.247000000000000e+001

>  <Hacc>
2

>  <Hdon>
0

>  <LogSw>
-4.736000000000002e+000

>  <Group>
3

$$$$
5630106
 OpenBabel03312015312D

 25 27  0  0  0  0  0  0  0  0999 V2000
    0.5042    1.2458    0.0000 C   0  0  0  0  0  0  0  0  0  0  0  0
   -1.0000   -1.4167    0.0000 C   0  0  0  0  0  0  0  0  0  0  0  0
    0.0792    2.1500    0.0000 C   0  0  0  0  0  0  0  0  0  0  0  0
   -1.5333   -2.3167    0.0000 C   0  0  0  0  0  0  0  0  0  0  0  0
    0.0000    0.3625    0.0000 N   0  0  0  0  0  0  0  0  0  0  0  0
    1.5500    1.3833    0.0000 N   0  0  0  0  0  0  0  0  0  0  0  0
   -1.5333   -0.5167    0.0000 N   0  0  0  0  0  0  0  0  0  0  0  0
    4.6042   -0.5500    0.0000 N   0  3  0  0  0  0  0  0  0  0  0  0
   -1.0208    0.3625    0.0000 N   0  0  0  0  0  0  0  0  0  0  0  0
    0.0000   -1.6500    0.0000 N   0  0  0  0  0  0  0  0  0  0  0  0
    0.7792    2.8833    0.0000 N   0  0  0  0  0  0  0  0  0  0  0  0
   -0.8333   -3.0667    0.0000 N   0  0  0  0  0  0  0  0  0  0  0  0
    1.7167    2.3958    0.0000 O   0  0  0  0  0  0  0  0  0  0  0  0
    0.1000   -2.6500    0.0000 O   0  0  0  0  0  0  0  0  0  0  0  0
    3.6000   -0.5167    0.0000 C   0  0  0  0  0  0  0  0  0  0  0  0
    5.2000   -1.4000    0.0000 O   0  5  0  0  0  0  0  0  0  0  0  0
    0.5042   -0.5167    0.0000 C   0  0  0  0  0  0  0  0  0  0  0  0
    5.1792    0.2958    0.0000 O   0  0  0  0  0  0  0  0  0  0  0  0
   -0.9500    2.2458    0.0000 N   0  0  0  0  0  0  0  0  0  0  0  0
   -2.5625   -2.4500    0.0000 N   0  0  0  0  0  0  0  0  0  0  0  0
    3.1000    0.3708    0.0000 C   0  0  0  0  0  0  0  0  0  0  0  0
    3.0792   -1.4000    0.0000 C   0  0  0  0  0  0  0  0  0  0  0  0
    1.5500   -0.5167    0.0000 C   0  0  0  0  0  0  0  0  0  0  0  0
    2.0500   -1.4000    0.0000 C   0  0  0  0  0  0  0  0  0  0  0  0
    2.0667    0.3708    0.0000 C   0  0  0  0  0  0  0  0  0  0  0  0
  2  7  1  0  0  0  0
  3  1  1  0  0  0  0
  4  2  1  0  0  0  0
  5  1  1  0  0  0  0
  6  1  2  0  0  0  0
  7  9  2  0  0  0  0
  8 15  1  0  0  0  0
  9  5  1  0  0  0  0
 10  2  2  0  0  0  0
 11  3  2  0  0  0  0
 11 13  1  0  0  0  0
 12  4  2  0  0  0  0
 13  6  1  0  0  0  0
 14 10  1  0  0  0  0
 14 12  1  0  0  0  0
 15 21  1  0  0  0  0
 15 22  2  0  0  0  0
 16  8  1  0  0  0  0
 17  5  1  0  0  0  0
 18  8  2  0  0  0  0
 19  3  1  0  0  0  0
 20  4  1  0  0  0  0
 21 25  2  0  0  0  0
 22 24  1  0  0  0  0
 23 17  1  0  0  0  0
 24 23  2  0  0  0  0
 25 23  1  0  0  0  0
M  CHG  2   8   1  16  -1
M  END
>  <ID>
5630106

>  <Supplier>
ChemBridge

>  <clogP>
1.610000000000000e+000

>  <RB>
5

>  <tPSA>
2.009800000000000e+002

>  <Hacc>
10

>  <Hdon>
2

>  <LogSw>
-3.490000000000000e+000

>  <Group>
1

$$$$
5630102
 OpenBabel03312015312D

 28 30  0  0  0  0  0  0  0  0999 V2000
    4.5875   -1.3875    0.0000 C   0  0  0  0  0  0  0  0  0  0  0  0
    3.5042   -1.7542    0.0000 N   0  0  0  0  0  0  0  0  0  0  0  0
    4.1875   -1.9667    0.0000 C   0  0  0  0  0  0  0  0  0  0  0  0
    3.5000   -1.0500    0.0000 N   0  0  0  0  0  0  0  0  0  0  0  0
    4.1667   -0.8292    0.0000 C   0  0  0  0  0  0  0  0  0  0  0  0
    5.3000   -1.3792    0.0000 C   0  0  0  0  0  0  0  0  0  0  0  0
    5.6667   -1.9792    0.0000 C   0  0  0  0  0  0  0  0  0  0  0  0
    6.3667   -1.9667    0.0000 C   0  0  0  0  0  0  0  0  0  0  0  0
    6.7375   -2.5792    0.0000 C   0  0  0  0  0  0  0  0  0  0  0  0
    2.9375   -2.1875    0.0000 C   0  0  0  0  0  0  0  0  0  0  0  0
    1.2375   -3.4542    0.0000 C   0  0  0  0  0  0  0  0  0  0  0  0
    6.4000   -3.2000    0.0000 C   0  0  0  0  0  0  0  0  0  0  0  0
    4.4167   -2.6375    0.0000 O   0  0  0  0  0  0  0  0  0  0  0  0
    5.3167   -2.6000    0.0000 C   0  0  0  0  0  0  0  0  0  0  0  0
    4.3792   -0.1542    0.0000 O   0  0  0  0  0  0  0  0  0  0  0  0
    1.8042   -3.0292    0.0000 C   0  0  0  0  0  0  0  0  0  0  0  0
    5.6875   -3.2042    0.0000 C   0  0  0  0  0  0  0  0  0  0  0  0
    1.3167   -4.1542    0.0000 O   0  0  0  0  0  0  0  0  0  0  0  0
    3.0167   -2.8875    0.0000 C   0  0  0  0  0  0  0  0  0  0  0  0
    2.2875   -1.9042    0.0000 C   0  0  0  0  0  0  0  0  0  0  0  0
    1.7167   -2.3292    0.0000 C   0  0  0  0  0  0  0  0  0  0  0  0
    2.4542   -3.3042    0.0000 C   0  0  0  0  0  0  0  0  0  0  0  0
    7.4500   -2.5542    0.0000 Br  0  0  0  0  0  0  0  0  0  0  0  0
    6.7167   -1.3500    0.0000 O   0  0  0  0  0  0  0  0  0  0  0  0
    0.5875   -3.1667    0.0000 O   0  0  0  0  0  0  0  0  0  0  0  0
    5.3500   -3.8292    0.0000 Cl  0  0  0  0  0  0  0  0  0  0  0  0
    0.5000   -2.4667    0.0000 C   0  0  0  0  0  0  0  0  0  0  0  0
   -0.1458   -2.1875    0.0000 C   0  0  0  0  0  0  0  0  0  0  0  0
  2  3  1  0  0  0  0
  3  1  1  0  0  0  0
  4  5  1  0  0  0  0
  4  2  1  0  0  0  0
  5  1  1  0  0  0  0
  6  1  2  0  0  0  0
  7  6  1  0  0  0  0
  8  7  2  0  0  0  0
  9  8  1  0  0  0  0
 10  2  1  0  0  0  0
 11 16  1  0  0  0  0
 12 17  1  0  0  0  0
 12  9  2  0  0  0  0
 13  3  2  0  0  0  0
 14  7  1  0  0  0  0
 15  5  2  0  0  0  0
 16 21  1  0  0  0  0
 16 22  2  0  0  0  0
 17 14  2  0  0  0  0
 18 11  2  0  0  0  0
 19 10  2  0  0  0  0
 20 10  1  0  0  0  0
 21 20  2  0  0  0  0
 22 19  1  0  0  0  0
 23  9  1  0  0  0  0
 24  8  1  0  0  0  0
 25 11  1  0  0  0  0
 26 17  1  0  0  0  0
 27 25  1  0  0  0  0
 28 27  1  0  0  0  0
M  END
>  <ID>
5630102

>  <Supplier>
ChemBridge

>  <clogP>
5.530000000000000e+000

>  <RB>
3

>  <tPSA>
9.594000000000000e+001

>  <Hacc>
5

>  <Hdon>
2

>  <LogSw>
-6.737000000000000e+000

>  <Group>
3

>  <Core>
048

$$$$
7947050
 OpenBabel03312015312D

 21 22  0  0  0  0  0  0  0  0999 V2000
    1.3167    1.5208    0.0000 S   0  0  0  0  0  0  0  0  0  0  0  0
    6.5667    2.8208    0.0000 C   0  0  0  0  0  0  0  0  0  0  0  0
    5.8167    2.8208    0.0000 C   0  0  0  0  0  0  0  0  0  0  0  0
    7.0042    2.2125    0.0000 C   0  0  0  0  0  0  0  0  0  0  0  0
    2.0667    1.5208    0.0000 C   0  0  0  0  0  0  0  0  0  0  0  0
    7.0042    3.4250    0.0000 C   0  0  0  0  0  0  0  0  0  0  0  0
    1.1167    2.2458    0.0000 O   0  0  0  0  0  0  0  0  0  0  0  0
    0.5792    1.3875    0.0000 O   0  0  0  0  0  0  0  0  0  0  0  0
    7.7167    2.4458    0.0000 O   0  0  0  0  0  0  0  0  0  0  0  0
    7.7167    3.1958    0.0000 C   0  0  0  0  0  0  0  0  0  0  0  0
    1.3792    0.7708    0.0000 N   0  0  0  0  0  0  0  0  0  0  0  0
    5.4417    3.4708    0.0000 O   0  0  0  0  0  0  0  0  0  0  0  0
    5.4417    2.1708    0.0000 N   0  0  0  0  0  0  0  0  0  0  0  0
    2.4417    0.8708    0.0000 C   0  0  0  0  0  0  0  0  0  0  0  0
    2.4417    2.1708    0.0000 C   0  0  0  0  0  0  0  0  0  0  0  0
    3.1917    0.8708    0.0000 C   0  0  0  0  0  0  0  0  0  0  0  0
    3.1917    2.1708    0.0000 C   0  0  0  0  0  0  0  0  0  0  0  0
    3.5667    1.5208    0.0000 C   0  0  0  0  0  0  0  0  0  0  0  0
    4.6917    2.1708    0.0000 C   0  0  0  0  0  0  0  0  0  0  0  0
    6.7750    1.4958    0.0000 C   0  0  0  0  0  0  0  0  0  0  0  0
    4.3167    1.5208    0.0000 C   0  0  0  0  0  0  0  0  0  0  0  0
  2  3  1  0  0  0  0
  3 13  1  0  0  0  0
  4  2  2  0  0  0  0
  5  1  1  0  0  0  0
  6  2  1  0  0  0  0
  7  1  2  0  0  0  0
  8  1  2  0  0  0  0
  9  4  1  0  0  0  0
  9 10  1  0  0  0  0
 10  6  2  0  0  0  0
 11  1  1  0  0  0  0
 12  3  2  0  0  0  0
 13 19  1  0  0  0  0
 14  5  1  0  0  0  0
 15  5  2  0  0  0  0
 16 14  2  0  0  0  0
 16 18  1  0  0  0  0
 17 15  1  0  0  0  0
 18 17  2  0  0  0  0
 19 21  1  0  0  0  0
 20  4  1  0  0  0  0
 21 18  1  0  0  0  0
M  END
>  <ID>
7947050

>  <Supplier>
ChemBridge

>  <clogP>
4.560000000000000e-001

>  <RB>
5

>  <tPSA>
1.024000000000000e+002

>  <Hacc>
5

>  <Hdon>
2

>  <LogSw>
-1.838000000000000e+000

>  <Group>
3

>  <Core>
531

$$$$
9017335
 OpenBabel03312015312D

 15 15  0  0  0  0  0  0  0  0999 V2000
    6.6667   -3.1542    0.0000 N   0  0  0  0  0  0  0  0  0  0  0  0
    7.3875   -3.5750    0.0000 C   0  0  0  0  0  0  0  0  0  0  0  0
    5.9417   -3.5750    0.0000 C   0  0  0  0  0  0  0  0  0  0  0  0
    5.2292   -3.1542    0.0000 C   0  0  0  0  0  0  0  0  0  0  0  0
    3.7917   -2.3292    0.0000 C   0  0  0  0  0  0  0  0  0  0  0  0
    4.5042   -3.5750    0.0000 C   0  0  0  0  0  0  0  0  0  0  0  0
    5.2292   -2.3292    0.0000 C   0  0  0  0  0  0  0  0  0  0  0  0
    4.5042   -1.9125    0.0000 C   0  0  0  0  0  0  0  0  0  0  0  0
    3.7917   -3.1542    0.0000 C   0  0  0  0  0  0  0  0  0  0  0  0
    3.0667   -1.9125    0.0000 O   0  0  0  0  0  0  0  0  0  0  0  0
    8.7667   -3.2000    0.0000 O   0  0  0  0  0  0  0  0  0  0  0  0
    7.9667   -2.9792    0.0000 C   0  0  0  0  0  0  0  0  0  0  0  0
    6.9125   -4.2500    0.0000 C   0  0  0  0  0  0  0  0  0  0  0  0
    8.0167   -4.1042    0.0000 C   0  0  0  0  0  0  0  0  0  0  0  0
    2.3542   -2.3292    0.0000 C   0  0  0  0  0  0  0  0  0  0  0  0
  2  1  1  0  0  0  0
  3  1  1  0  0  0  0
  4  3  1  0  0  0  0
  5  9  1  0  0  0  0
  6  4  1  0  0  0  0
  7  4  2  0  0  0  0
  8  7  1  0  0  0  0
  8  5  2  0  0  0  0
  9  6  2  0  0  0  0
 10  5  1  0  0  0  0
 11 12  1  0  0  0  0
 12  2  1  0  0  0  0
 13  2  1  0  0  0  0
 14  2  1  0  0  0  0
 15 10  1  0  0  0  0
M  END
>  <ID>
9017335

>  <Supplier>
ChemBridge

>  <clogP>
5.700000000000001e-001

>  <RB>
4

>  <tPSA>
4.149000000000000e+001

>  <Hacc>
3

>  <Hdon>
2

>  <LogSw>
-2.060000000000000e-001

>  <Group>
2

$$$$
7513386
 OpenBabel03312015312D

 13 14  0  0  0  0  0  0  0  0999 V2000
    6.0417   -2.4000    0.0000 N   0  0  0  0  0  0  0  0  0  0  0  0
    6.0417   -3.2292    0.0000 C   0  0  0  0  0  0  0  0  0  0  0  0
    5.3250   -1.9917    0.0000 C   0  0  0  0  0  0  0  0  0  0  0  0
    5.3250   -3.6375    0.0000 N   0  0  0  0  0  0  0  0  0  0  0  0
    4.6042   -2.4000    0.0000 C   0  0  0  0  0  0  0  0  0  0  0  0
    4.6042   -3.2292    0.0000 C   0  0  0  0  0  0  0  0  0  0  0  0
    6.7750   -3.6375    0.0000 S   0  5  0  0  0  0  0  0  0  0  0  0
    5.3250   -1.1625    0.0000 O   0  0  0  0  0  0  0  0  0  0  0  0
    6.7750   -1.9792    0.0000 C   0  0  0  0  0  0  0  0  0  0  0  0
    3.9042   -1.9917    0.0000 C   0  0  0  0  0  0  0  0  0  0  0  0
    3.9042   -3.6375    0.0000 C   0  0  0  0  0  0  0  0  0  0  0  0
    3.1875   -2.4000    0.0000 C   0  0  0  0  0  0  0  0  0  0  0  0
    3.1875   -3.2292    0.0000 C   0  0  0  0  0  0  0  0  0  0  0  0
  2  1  1  0  0  0  0
  3  1  1  0  0  0  0
  4  2  2  0  0  0  0
  4  6  1  0  0  0  0
  5  3  1  0  0  0  0
  6  5  2  0  0  0  0
  7  2  1  0  0  0  0
  8  3  2  0  0  0  0
  9  1  1  0  0  0  0
 10  5  1  0  0  0  0
 11  6  1  0  0  0  0
 12 10  2  0  0  0  0
 13 12  1  0  0  0  0
 13 11  2  0  0  0  0
M  CHG  1   7  -1
M  END
>  <ID>
7513386

>  <Supplier>
ChemBridge

>  <clogP>
3.030000000000000e-001

>  <RB>
2

>  <tPSA>
3.489000000000000e+001

>  <Hacc>
2

>  <Hdon>
0

>  <LogSw>
-2.172000000000000e+000

>  <Group>
2

$$$$
9017330
 OpenBabel03312015312D

 22 24  0  0  0  0  0  0  0  0999 V2000
    4.1625    2.3750    0.0000 C   0  0  0  0  0  0  0  0  0  0  0  0
    4.5375    1.7250    0.0000 C   0  0  0  0  0  0  0  0  0  0  0  0
    3.4292    2.2208    0.0000 N   0  0  0  0  0  0  0  0  0  0  0  0
    4.5375    3.0250    0.0000 N   0  0  0  0  0  0  0  0  0  0  0  0
    5.6625    2.3750    0.0000 N   0  0  0  0  0  0  0  0  0  0  0  0
    5.2875    3.0250    0.0000 C   0  0  0  0  0  0  0  0  0  0  0  0
    5.2875    1.7250    0.0000 C   0  0  0  0  0  0  0  0  0  0  0  0
    3.3500    1.4750    0.0000 C   0  0  0  0  0  0  0  0  0  0  0  0
    4.0375    1.1708    0.0000 N   0  0  0  0  0  0  0  0  0  0  0  0
    2.7042    1.1000    0.0000 O   0  0  0  0  0  0  0  0  0  0  0  0
    5.6625    3.6750    0.0000 O   0  0  0  0  0  0  0  0  0  0  0  0
    5.6625    1.0750    0.0000 O   0  0  0  0  0  0  0  0  0  0  0  0
    2.0542    1.4750    0.0000 C   0  0  0  0  0  0  0  0  0  0  0  0
    2.0542    2.2250    0.0000 C   0  0  0  0  0  0  0  0  0  0  0  0
    4.1625    3.6750    0.0000 C   0  0  0  0  0  0  0  0  0  0  0  0
    6.4125    2.3750    0.0000 C   0  0  0  0  0  0  0  0  0  0  0  0
    4.1917    0.4333    0.0000 C   0  0  0  0  0  0  0  0  0  0  0  0
    1.4042    2.6000    0.0000 C   0  0  0  0  0  0  0  0  0  0  0  0
    1.4042    3.3583    0.0000 O   0  0  0  0  0  0  0  0  0  0  0  0
    0.7542    1.4750    0.0000 C   0  0  0  0  0  0  0  0  0  0  0  0
    1.4042    1.1000    0.0000 C   0  0  0  0  0  0  0  0  0  0  0  0
    0.7542    2.2250    0.0000 C   0  0  0  0  0  0  0  0  0  0  0  0
  2  1  2  0  0  0  0
  3  1  1  0  0  0  0
  4  1  1  0  0  0  0
  5  6  1  0  0  0  0
  6  4  1  0  0  0  0
  7  2  1  0  0  0  0
  7  5  1  0  0  0  0
  8  3  2  0  0  0  0
  9  2  1  0  0  0  0
  9  8  1  0  0  0  0
 10  8  1  0  0  0  0
 11  6  2  0  0  0  0
 12  7  2  0  0  0  0
 13 10  1  0  0  0  0
 14 13  1  0  0  0  0
 15  4  1  0  0  0  0
 16  5  1  0  0  0  0
 17  9  1  0  0  0  0
 18 14  2  0  0  0  0
 19 18  1  0  0  0  0
 20 21  1  0  0  0  0
 21 13  2  0  0  0  0
 22 20  2  0  0  0  0
 22 18  1  0  0  0  0
M  END
>  <ID>
9017330

>  <Supplier>
ChemBridge

>  <clogP>
1.391000000000000e+000

>  <RB>
2

>  <tPSA>
9.128000000000000e+001

>  <Hacc>
5

>  <Hdon>
1

>  <LogSw>
-2.013000000000000e+000

>  <Group>
3

>  <Core>
251

$$$$
9017331
 OpenBabel03312015312D

 28 30  0  0  0  0  0  0  0  0999 V2000
    5.2292    3.3833    0.0000 S   0  0  0  0  0  0  0  0  0  0  0  0
    5.9792    3.3833    0.0000 N   0  0  0  0  0  0  0  0  0  0  0  0
    2.8667    2.0708    0.0000 C   0  0  0  0  0  0  0  0  0  0  0  0
    5.0375    2.6583    0.0000 C   0  0  0  0  0  0  0  0  0  0  0  0
    2.1417    1.8750    0.0000 C   0  0  0  0  0  0  0  0  0  0  0  0
    3.3917    1.5458    0.0000 N   0  0  0  0  0  0  0  0  0  0  0  0
    4.1167    1.7333    0.0000 C   0  0  0  0  0  0  0  0  0  0  0  0
    4.3125    2.4583    0.0000 C   0  0  0  0  0  0  0  0  0  0  0  0
    5.3000    4.1167    0.0000 O   0  0  0  0  0  0  0  0  0  0  0  0
    4.4917    3.5083    0.0000 O   0  0  0  0  0  0  0  0  0  0  0  0
    7.4792    3.3833    0.0000 N   0  0  0  0  0  0  0  0  0  0  0  0
    6.3542    4.0250    0.0000 C   0  0  0  0  0  0  0  0  0  0  0  0
    6.3542    2.7333    0.0000 C   0  0  0  0  0  0  0  0  0  0  0  0
    1.6125    2.4083    0.0000 C   0  0  0  0  0  0  0  0  0  0  0  0
    4.6500    1.2083    0.0000 C   0  0  0  0  0  0  0  0  0  0  0  0
    3.0542    2.7958    0.0000 O   0  0  0  0  0  0  0  0  0  0  0  0
    5.5667    2.1250    0.0000 C   0  0  0  0  0  0  0  0  0  0  0  0
    5.3750    1.4000    0.0000 C   0  0  0  0  0  0  0  0  0  0  0  0
    7.1042    2.7333    0.0000 C   0  0  0  0  0  0  0  0  0  0  0  0
    7.1042    4.0250    0.0000 C   0  0  0  0  0  0  0  0  0  0  0  0
    1.8042    3.1333    0.0000 F   0  0  0  0  0  0  0  0  0  0  0  0
    1.9417    1.1583    0.0000 C   0  0  0  0  0  0  0  0  0  0  0  0
    4.4542    0.4833    0.0000 O   0  0  0  0  0  0  0  0  0  0  0  0
    8.2292    3.3833    0.0000 C   0  0  0  0  0  0  0  0  0  0  0  0
    0.8875    2.2125    0.0000 C   0  0  0  0  0  0  0  0  0  0  0  0
    4.9875   -0.0500    0.0000 C   0  0  0  0  0  0  0  0  0  0  0  0
    1.2167    0.9583    0.0000 C   0  0  0  0  0  0  0  0  0  0  0  0
    0.6917    1.4875    0.0000 C   0  0  0  0  0  0  0  0  0  0  0  0
  2  1  1  0  0  0  0
  3  6  1  0  0  0  0
  4  1  1  0  0  0  0
  5  3  1  0  0  0  0
  6  7  1  0  0  0  0
  7  8  1  0  0  0  0
  8  4  2  0  0  0  0
  9  1  2  0  0  0  0
 10  1  2  0  0  0  0
 11 19  1  0  0  0  0
 12  2  1  0  0  0  0
 13  2  1  0  0  0  0
 14  5  1  0  0  0  0
 15 18  1  0  0  0  0
 15  7  2  0  0  0  0
 16  3  2  0  0  0  0
 17  4  1  0  0  0  0
 18 17  2  0  0  0  0
 19 13  1  0  0  0  0
 20 12  1  0  0  0  0
 20 11  1  0  0  0  0
 21 14  1  0  0  0  0
 22  5  2  0  0  0  0
 23 15  1  0  0  0  0
 24 11  1  0  0  0  0
 25 14  2  0  0  0  0
 25 28  1  0  0  0  0
 26 23  1  0  0  0  0
 27 22  1  0  0  0  0
 28 27  2  0  0  0  0
M  END
>  <ID>
9017331

>  <Supplier>
ChemBridge

>  <clogP>
1.920000000000000e+000

>  <RB>
3

>  <tPSA>
7.894999999999995e+001

>  <Hacc>
6

>  <Hdon>
1

>  <LogSw>
-3.810000000000000e+000

>  <Group>
2

>  <Core>
167

$$$$
7334354
 OpenBabel03312015312D

 20 21  0  0  0  0  0  0  0  0999 V2000
    2.2250    2.1083    0.0000 N   0  0  0  0  0  0  0  0  0  0  0  0
    3.5250    2.8583    0.0000 O   0  0  0  0  0  0  0  0  0  0  0  0
    3.5250    2.1083    0.0000 C   0  0  3  0  0  0  0  0  0  0  0  0
    2.8750    3.2333    0.0000 C   0  0  3  0  0  0  0  0  0  0  0  0
    2.8750    1.7333    0.0000 C   0  0  0  0  0  0  0  0  0  0  0  0
    2.2250    2.8583    0.0000 C   0  0  0  0  0  0  0  0  0  0  0  0
   -1.6750    2.1083    0.0000 C   0  0  0  0  0  0  0  0  0  0  0  0
   -1.0250    1.7333    0.0000 C   0  0  0  0  0  0  0  0  0  0  0  0
    1.5750    1.7333    0.0000 C   0  0  0  0  0  0  0  0  0  0  0  0
   -2.3208    1.7333    0.0000 C   0  0  0  0  0  0  0  0  0  0  0  0
    0.9250    2.1083    0.0000 C   0  0  0  0  0  0  0  0  0  0  0  0
   -0.3750    2.1083    0.0000 O   0  0  0  0  0  0  0  0  0  0  0  0
   -1.6750    0.6083    0.0000 C   0  0  0  0  0  0  0  0  0  0  0  0
    0.2750    1.7333    0.0000 C   0  0  0  0  0  0  0  0  0  0  0  0
   -1.0250    0.9833    0.0000 C   0  0  0  0  0  0  0  0  0  0  0  0
   -2.3208    0.9833    0.0000 C   0  0  0  0  0  0  0  0  0  0  0  0
    2.8750    3.9833    0.0000 C   0  0  0  0  0  0  0  0  0  0  0  0
    4.1667    1.7333    0.0000 C   0  0  0  0  0  0  0  0  0  0  0  0
   -2.9708    2.1083    0.0000 C   0  0  0  0  0  0  0  0  0  0  0  0
   -3.6208    1.7333    0.0000 C   0  0  0  0  0  0  0  0  0  0  0  0
  2  3  1  0  0  0  0
  2  4  1  0  0  0  0
  3  5  1  0  0  0  0
  4  6  1  0  0  0  0
  5  1  1  0  0  0  0
  6  1  1  0  0  0  0
  7  8  1  0  0  0  0
  8 12  1  0  0  0  0
  9  1  1  0  0  0  0
 10  7  2  0  0  0  0
 10 16  1  0  0  0  0
 11  9  1  0  0  0  0
 12 14  1  0  0  0  0
 13 15  1  0  0  0  0
 14 11  1  0  0  0  0
 15  8  2  0  0  0  0
 16 13  2  0  0  0  0
 17  4  1  0  0  0  0
 18  3  1  0  0  0  0
 19 10  1  0  0  0  0
 20 19  1  0  0  0  0
M  END
>  <ID>
7334354

>  <Supplier>
ChemBridge

>  <clogP>
9.600000000000000e-001

>  <RB>
5

>  <tPSA>
9.630000000000001e+001

>  <Hacc>
7

>  <Hdon>
2

>  <LogSw>
-1.035000000000000e+000

>  <Group>
2

>  <Core>
104

$$$$
7645329
 OpenBabel03312015312D

 33 39  0  0  0  0  0  0  0  0999 V2000
   -0.5333   -0.0417    0.0000 N   0  0  0  0  0  0  0  0  0  0  0  0
    0.1542    0.3833    0.0000 C   0  0  0  0  0  0  0  0  0  0  0  0
    0.8667   -0.8375    0.0000 C   0  0  0  0  0  0  0  0  0  0  0  0
    0.1792   -1.2417    0.0000 C   0  0  0  0  0  0  0  0  0  0  0  0
    1.5792   -1.2417    0.0000 C   0  0  0  0  0  0  0  0  0  0  0  0
   -0.5458    1.5833    0.0000 C   0  0  0  0  0  0  0  0  0  0  0  0
   -1.2458    1.1625    0.0000 C   0  0  0  0  0  0  0  0  0  0  0  0
    0.1542    1.1833    0.0000 N   0  0  0  0  0  0  0  0  0  0  0  0
   -1.2208    0.3583    0.0000 C   0  0  3  0  0  0  0  0  0  0  0  0
    0.8542   -0.0167    0.0000 S   0  0  0  0  0  0  0  0  0  0  0  0
    2.3292   -0.9042    0.0000 C   0  0  0  0  0  0  0  0  0  0  0  0
    2.8792   -1.5167    0.0000 N   0  0  0  0  0  0  0  0  0  0  0  0
    1.6667   -2.0542    0.0000 C   0  0  0  0  0  0  0  0  0  0  0  0
   -0.5583    2.3958    0.0000 C   0  0  0  0  0  0  0  0  0  0  0  0
   -1.9208   -0.0542    0.0000 C   0  0  0  0  0  0  0  0  0  0  0  0
    2.4792   -2.2292    0.0000 C   0  0  0  0  0  0  0  0  0  0  0  0
   -1.9333    1.5625    0.0000 C   0  0  0  0  0  0  0  0  0  0  0  0
   -1.9083   -0.8667    0.0000 S   0  0  0  0  0  0  0  0  0  0  0  0
   -0.0333   -2.0375    0.0000 O   0  0  0  0  0  0  0  0  0  0  0  0
    2.4917   -0.0917    0.0000 O   0  0  0  0  0  0  0  0  0  0  0  0
   -1.2583    2.7958    0.0000 C   0  0  0  0  0  0  0  0  0  0  0  0
   -2.6208    0.3458    0.0000 C   0  0  0  0  0  0  0  0  0  0  0  0
   -2.6083   -1.2792    0.0000 C   0  0  0  0  0  0  0  0  0  0  0  0
   -1.9458    2.3833    0.0000 C   0  0  0  0  0  0  0  0  0  0  0  0
   -3.3083   -0.8792    0.0000 C   0  0  0  0  0  0  0  0  0  0  0  0
    1.1167   -2.6667    0.0000 C   0  0  0  0  0  0  0  0  0  0  0  0
    0.1292    2.8000    0.0000 C   0  0  0  0  0  0  0  0  0  0  0  0
    2.7292   -3.0042    0.0000 C   0  0  0  0  0  0  0  0  0  0  0  0
   -1.2708    3.5958    0.0000 C   0  0  0  0  0  0  0  0  0  0  0  0
    0.1292    3.6208    0.0000 C   0  0  0  0  0  0  0  0  0  0  0  0
    1.3792   -3.4417    0.0000 C   0  0  0  0  0  0  0  0  0  0  0  0
    2.1917   -3.6167    0.0000 C   0  0  0  0  0  0  0  0  0  0  0  0
   -0.5708    4.0125    0.0000 C   0  0  0  0  0  0  0  0  0  0  0  0
  2  1  1  0  0  0  0
  3  4  1  0  0  0  0
  3 10  1  0  0  0  0
  4  1  1  0  0  0  0
  5  3  2  0  0  0  0
  6  7  2  0  0  0  0
  6  8  1  0  0  0  0
  7  9  1  0  0  0  0
  8  2  2  0  0  0  0
  9  1  1  0  0  0  0
 10  2  1  0  0  0  0
 11  5  1  0  0  0  0
 12 11  1  0  0  0  0
 12 16  1  0  0  0  0
 13  5  1  0  0  0  0
 14  6  1  0  0  0  0
 14 21  2  0  0  0  0
 15  9  1  0  0  0  0
 16 13  1  0  0  0  0
 17  7  1  0  0  0  0
 18 15  1  0  0  0  0
 19  4  2  0  0  0  0
 20 11  2  0  0  0  0
 21 24  1  0  0  0  0
 22 15  2  0  0  0  0
 23 18  1  0  0  0  0
 23 25  2  0  0  0  0
 24 17  1  0  0  0  0
 25 22  1  0  0  0  0
 26 13  2  0  0  0  0
 27 14  1  0  0  0  0
 28 16  2  0  0  0  0
 29 21  1  0  0  0  0
 30 27  2  0  0  0  0
 30 33  1  0  0  0  0
 31 26  1  0  0  0  0
 32 31  2  0  0  0  0
 32 28  1  0  0  0  0
 33 29  2  0  0  0  0
M  END
>  <ID>
7645329

>  <Supplier>
ChemBridge

>  <clogP>
5.137000000000000e+000

>  <RB>
1

>  <tPSA>
6.346000000000000e+001

>  <Hacc>
3

>  <Hdon>
1

>  <LogSw>
-7.711000000000000e+000

>  <Group>
1

>  <Core>
546

$$$$
7513389
 OpenBabel03312015312D

 22 23  0  0  0  0  0  0  0  0999 V2000
    2.1167    0.2750    0.0000 S   0  0  0  0  0  0  0  0  0  0  0  0
    2.9417    0.2750    0.0000 C   0  0  0  0  0  0  0  0  0  0  0  0
    3.3500    0.9958    0.0000 C   0  0  0  0  0  0  0  0  0  0  0  0
    4.1667    0.9958    0.0000 C   0  0  0  0  0  0  0  0  0  0  0  0
    1.2917    0.2750    0.0000 O   0  0  0  0  0  0  0  0  0  0  0  0
    3.3542   -0.4375    0.0000 C   0  0  0  0  0  0  0  0  0  0  0  0
    0.8792   -0.4375    0.0000 C   0  0  0  0  0  0  0  0  0  0  0  0
    2.1167    1.1000    0.0000 O   0  0  0  0  0  0  0  0  0  0  0  0
    2.1167   -0.5500    0.0000 O   0  0  0  0  0  0  0  0  0  0  0  0
    0.0542   -0.4292    0.0000 C   0  0  0  0  0  0  0  0  0  0  0  0
    4.5917    0.2833    0.0000 C   0  0  0  0  0  0  0  0  0  0  0  0
   -0.3583   -1.1417    0.0000 C   0  0  0  0  0  0  0  0  0  0  0  0
    4.1792   -0.4292    0.0000 C   0  0  0  0  0  0  0  0  0  0  0  0
    1.2917   -1.1417    0.0000 C   0  0  0  0  0  0  0  0  0  0  0  0
    4.5792    1.7125    0.0000 Cl  0  0  0  0  0  0  0  0  0  0  0  0
    2.9292    1.7000    0.0000 O   0  0  0  0  0  0  0  0  0  0  0  0
    0.0500   -1.8542    0.0000 C   0  0  0  0  0  0  0  0  0  0  0  0
    5.4167    0.2875    0.0000 Cl  0  0  0  0  0  0  0  0  0  0  0  0
    0.8792   -1.8542    0.0000 C   0  0  0  0  0  0  0  0  0  0  0  0
   -0.3583    0.2875    0.0000 C   0  0  0  0  0  0  0  0  0  0  0  0
    3.3375    2.4208    0.0000 C   0  0  0  0  0  0  0  0  0  0  0  0
   -0.3625   -2.5667    0.0000 C   0  0  0  0  0  0  0  0  0  0  0  0
  2  1  1  0  0  0  0
  3  2  1  0  0  0  0
  4  3  2  0  0  0  0
  5  1  1  0  0  0  0
  6  2  2  0  0  0  0
  7  5  1  0  0  0  0
  8  1  2  0  0  0  0
  9  1  2  0  0  0  0
 10  7  2  0  0  0  0
 11 13  2  0  0  0  0
 11  4  1  0  0  0  0
 12 10  1  0  0  0  0
 12 17  2  0  0  0  0
 13  6  1  0  0  0  0
 14  7  1  0  0  0  0
 15  4  1  0  0  0  0
 16  3  1  0  0  0  0
 17 19  1  0  0  0  0
 18 11  1  0  0  0  0
 19 14  2  0  0  0  0
 20 10  1  0  0  0  0
 21 16  1  0  0  0  0
 22 17  1  0  0  0  0
M  END
>  <ID>
7513389

>  <Supplier>
ChemBridge

>  <clogP>
4.994000000000000e+000

>  <RB>
3

>  <tPSA>
5.259999999999999e+001

>  <Hacc>
4

>  <Hdon>
0

>  <LogSw>
-6.437000000000000e+000

>  <Group>
1

>  <Core>
493

$$$$
7144228
 OpenBabel03312015312D

 26 28  0  0  0  0  0  0  0  0999 V2000
    2.5167   -6.1292    0.0000 S   0  0  0  0  0  0  0  0  0  0  0  0
    3.3167   -0.4250    0.0000 N   0  0  0  0  0  0  0  0  0  0  0  0
    2.6542   -0.9042    0.0000 C   0  0  0  0  0  0  0  0  0  0  0  0
    3.7292   -1.6917    0.0000 C   0  0  0  0  0  0  0  0  0  0  0  0
    3.9875   -0.9042    0.0000 C   0  0  0  0  0  0  0  0  0  0  0  0
    2.9042   -1.6917    0.0000 S   0  0  0  0  0  0  0  0  0  0  0  0
    2.8542   -5.3792    0.0000 O   0  0  0  0  0  0  0  0  0  0  0  0
    3.2000   -4.6250    0.0000 C   0  0  0  0  0  0  0  0  0  0  0  0
    4.2167   -2.3625    0.0000 C   0  0  0  0  0  0  0  0  0  0  0  0
    2.1750   -6.8792    0.0000 C   0  0  0  0  0  0  0  0  0  0  0  0
    2.7167   -3.9542    0.0000 C   0  0  0  0  0  0  0  0  0  0  0  0
    1.8792   -5.6000    0.0000 O   0  0  0  0  0  0  0  0  0  0  0  0
    3.2625   -6.4750    0.0000 O   0  0  0  0  0  0  0  0  0  0  0  0
    1.8667   -0.6542    0.0000 N   0  0  0  0  0  0  0  0  0  0  0  0
    3.8792   -3.1167    0.0000 C   0  0  0  0  0  0  0  0  0  0  0  0
    4.7750   -0.6542    0.0000 O   0  0  0  0  0  0  0  0  0  0  0  0
    3.0542   -3.2000    0.0000 C   0  0  0  0  0  0  0  0  0  0  0  0
    4.0167   -4.5417    0.0000 C   0  0  0  0  0  0  0  0  0  0  0  0
    1.3542   -6.9542    0.0000 C   0  0  0  0  0  0  0  0  0  0  0  0
    2.6542   -7.5542    0.0000 C   0  0  0  0  0  0  0  0  0  0  0  0
    1.8917   -4.0292    0.0000 Br  0  0  0  0  0  0  0  0  0  0  0  0
    4.3625   -3.7792    0.0000 C   0  0  0  0  0  0  0  0  0  0  0  0
    1.4875   -8.3875    0.0000 C   0  0  0  0  0  0  0  0  0  0  0  0
    1.0125   -7.7042    0.0000 C   0  0  0  0  0  0  0  0  0  0  0  0
    2.3125   -8.3125    0.0000 C   0  0  0  0  0  0  0  0  0  0  0  0
    1.1417   -9.1375    0.0000 Cl  0  0  0  0  0  0  0  0  0  0  0  0
  2  5  1  0  0  0  0
  2  3  1  0  0  0  0
  3  6  1  0  0  0  0
  4  9  2  0  0  0  0
  5  4  1  0  0  0  0
  6  4  1  0  0  0  0
  7  1  1  0  0  0  0
  8  7  1  0  0  0  0
  9 15  1  0  0  0  0
 10  1  1  0  0  0  0
 11  8  1  0  0  0  0
 12  1  2  0  0  0  0
 13  1  2  0  0  0  0
 14  3  2  0  0  0  0
 15 22  2  0  0  0  0
 16  5  2  0  0  0  0
 17 11  2  0  0  0  0
 17 15  1  0  0  0  0
 18  8  2  0  0  0  0
 19 10  2  0  0  0  0
 20 10  1  0  0  0  0
 21 11  1  0  0  0  0
 22 18  1  0  0  0  0
 23 25  1  0  0  0  0
 23 24  2  0  0  0  0
 24 19  1  0  0  0  0
 25 20  2  0  0  0  0
 26 23  1  0  0  0  0
M  END
>  <ID>
7144228

>  <Supplier>
ChemBridge

>  <clogP>
4.130000000000000e+000

>  <RB>
4

>  <tPSA>
9.631999999999999e+001

>  <Hacc>
5

>  <Hdon>
2

>  <LogSw>
-6.180000000000000e+000

>  <Group>
2

>  <Core>
004

$$$$
6119804
 OpenBabel03312015312D

 17 19  0  0  0  0  0  0  0  0999 V2000
    2.4042    2.1000    0.0000 C   0  0  0  0  0  0  0  0  0  0  0  0
    1.2000    2.8000    0.0000 C   0  0  0  0  0  0  0  0  0  0  0  0
    2.4042    0.7000    0.0000 C   0  0  0  0  0  0  0  0  0  0  0  0
    3.7042    2.5208    0.0000 N   0  0  0  0  0  0  0  0  0  0  0  0
    4.5500    1.4000    0.0000 O   0  0  0  0  0  0  0  0  0  0  0  0
    3.7042    0.2833    0.0000 N   0  0  0  0  0  0  0  0  0  0  0  0
    1.2000    4.2000    0.0000 N   0  0  0  0  0  0  0  0  0  0  0  0
    0.0000    2.1000    0.0000 C   0  0  0  0  0  0  0  0  0  0  0  0
    0.0000    0.7000    0.0000 C   0  0  0  0  0  0  0  0  0  0  0  0
    1.2000    0.0000    0.0000 C   0  0  0  0  0  0  0  0  0  0  0  0
    2.1792    5.1542    0.0000 C   0  0  0  0  0  0  0  0  0  0  0  0
    4.2000    7.1167    0.0000 C   0  0  0  0  0  0  0  0  0  0  0  0
    3.5292    4.7792    0.0000 C   0  0  0  0  0  0  0  0  0  0  0  0
    1.8500    6.5042    0.0000 C   0  0  0  0  0  0  0  0  0  0  0  0
    2.8292    7.5000    0.0000 C   0  0  0  0  0  0  0  0  0  0  0  0
    4.5500    5.7542    0.0000 C   0  0  0  0  0  0  0  0  0  0  0  0
    5.1542    8.0917    0.0000 C   0  0  0  0  0  0  0  0  0  0  0  0
  2  1  1  0  0  0  0
  3  1  1  0  0  0  0
  4  1  2  0  0  0  0
  5  4  1  0  0  0  0
  6  3  2  0  0  0  0
  6  5  1  0  0  0  0
  7  2  1  0  0  0  0
  8  2  2  0  0  0  0
  8  9  1  0  0  0  0
  9 10  2  0  0  0  0
 10  3  1  0  0  0  0
 11  7  1  0  0  0  0
 12 15  1  0  0  0  0
 13 11  2  0  0  0  0
 14 11  1  0  0  0  0
 15 14  2  0  0  0  0
 16 13  1  0  0  0  0
 16 12  2  0  0  0  0
 17 12  1  0  0  0  0
M  END
>  <ID>
6119804

>  <Supplier>
ChemBridge

>  <clogP>
4.410000000000000e+000

>  <RB>
2

>  <tPSA>
5.095000000000000e+001

>  <Hacc>
3

>  <Hdon>
1

>  <LogSw>
-4.609999999999999e+000

>  <Group>
3

$$$$
7101900
 OpenBabel03312015312D

 32 34  0  0  0  0  0  0  0  0999 V2000
    5.5417    0.4083    0.0000 N   0  0  0  0  0  0  0  0  0  0  0  0
    4.1125    0.4083    0.0000 C   0  0  0  0  0  0  0  0  0  0  0  0
    6.9750    0.4083    0.0000 C   0  0  0  0  0  0  0  0  0  0  0  0
    4.8292    0.8208    0.0000 C   0  0  0  0  0  0  0  0  0  0  0  0
    6.2542    0.8208    0.0000 C   0  0  0  0  0  0  0  0  0  0  0  0
    3.4000    0.8208    0.0000 O   0  0  0  0  0  0  0  0  0  0  0  0
    6.9792   -0.4125    0.0000 O   0  0  0  0  0  0  0  0  0  0  0  0
    6.2542   -1.6417    0.0000 C   0  0  0  0  0  0  0  0  0  0  0  0
    2.6792    2.0583    0.0000 C   0  0  0  0  0  0  0  0  0  0  0  0
    1.9667    1.6375    0.0000 C   0  0  0  0  0  0  0  0  0  0  0  0
    6.9667   -2.0625    0.0000 C   0  0  0  0  0  0  0  0  0  0  0  0
    4.1125   -0.4167    0.0000 O   0  0  0  0  0  0  0  0  0  0  0  0
    7.6917    0.8250    0.0000 O   0  0  0  0  0  0  0  0  0  0  0  0
    6.2625   -0.8167    0.0000 C   0  0  0  0  0  0  0  0  0  0  0  0
    3.3917    1.6458    0.0000 C   0  0  0  0  0  0  0  0  0  0  0  0
    5.5417   -2.0500    0.0000 O   0  0  0  0  0  0  0  0  0  0  0  0
    2.6792    2.8833    0.0000 O   0  0  0  0  0  0  0  0  0  0  0  0
    1.2542    2.0458    0.0000 C   0  0  0  0  0  0  0  0  0  0  0  0
    6.9625   -2.8792    0.0000 C   0  0  0  0  0  0  0  0  0  0  0  0
    1.9667    0.8083    0.0000 C   0  0  0  0  0  0  0  0  0  0  0  0
    7.6917   -1.6500    0.0000 C   0  0  0  0  0  0  0  0  0  0  0  0
    0.5417    1.6375    0.0000 C   0  0  0  0  0  0  0  0  0  0  0  0
    1.2542    0.3958    0.0000 C   0  0  0  0  0  0  0  0  0  0  0  0
    8.4000   -2.0667    0.0000 C   0  0  0  0  0  0  0  0  0  0  0  0
    7.6667   -3.3000    0.0000 C   0  0  0  0  0  0  0  0  0  0  0  0
    0.5375    0.8083    0.0000 C   0  0  0  0  0  0  0  0  0  0  0  0
    8.3917   -2.8917    0.0000 C   0  0  0  0  0  0  0  0  0  0  0  0
    4.8292    1.6500    0.0000 C   0  0  0  0  0  0  0  0  0  0  0  0
    6.2542    1.6500    0.0000 C   0  0  0  0  0  0  0  0  0  0  0  0
    5.5417    2.0625    0.0000 C   0  0  0  0  0  0  0  0  0  0  0  0
   -0.1750    0.3958    0.0000 C   0  0  0  0  0  0  0  0  0  0  0  0
    9.1000   -3.3167    0.0000 C   0  0  0  0  0  0  0  0  0  0  0  0
  2  4  1  0  0  0  0
  3  5  1  0  0  0  0
  4  1  1  0  0  0  0
  5  1  2  0  0  0  0
  6  2  1  0  0  0  0
  7  3  1  0  0  0  0
  8 14  1  0  0  0  0
  9 15  1  0  0  0  0
 10  9  1  0  0  0  0
 11  8  1  0  0  0  0
 12  2  2  0  0  0  0
 13  3  2  0  0  0  0
 14  7  1  0  0  0  0
 15  6  1  0  0  0  0
 16  8  2  0  0  0  0
 17  9  2  0  0  0  0
 18 10  2  0  0  0  0
 19 11  2  0  0  0  0
 20 10  1  0  0  0  0
 21 11  1  0  0  0  0
 22 18  1  0  0  0  0
 22 26  2  0  0  0  0
 23 20  2  0  0  0  0
 24 21  2  0  0  0  0
 25 19  1  0  0  0  0
 25 27  2  0  0  0  0
 26 23  1  0  0  0  0
 27 24  1  0  0  0  0
 28  4  2  0  0  0  0
 28 30  1  0  0  0  0
 29  5  1  0  0  0  0
 30 29  2  0  0  0  0
 31 26  1  0  0  0  0
 32 27  1  0  0  0  0
M  END
>  <ID>
7101900

>  <Supplier>
ChemBridge

>  <clogP>
2.900000000000000e+000

>  <RB>
10

>  <tPSA>
9.963000000000002e+001

>  <Hacc>
7

>  <Hdon>
0

>  <LogSw>
-4.821999999999998e+000

>  <Group>
1

>  <Core>
217

$$$$
6175000
 OpenBabel03312015312D

 20 21  0  0  0  0  0  0  0  0999 V2000
    8.5292   -4.1917    0.0000 C   0  0  0  0  0  0  0  0  0  0  0  0
    7.8167   -3.7792    0.0000 N   0  0  0  0  0  0  0  0  0  0  0  0
    7.1042   -4.1917    0.0000 C   0  0  0  0  0  0  0  0  0  0  0  0
    9.2375   -3.7792    0.0000 C   0  0  0  0  0  0  0  0  0  0  0  0
    8.5250   -5.0167    0.0000 C   0  0  0  0  0  0  0  0  0  0  0  0
    5.6750   -4.1917    0.0000 S   0  0  0  0  0  0  0  0  0  0  0  0
    7.1042   -5.0167    0.0000 O   0  0  0  0  0  0  0  0  0  0  0  0
    6.3875   -3.7792    0.0000 C   0  0  0  0  0  0  0  0  0  0  0  0
    4.9542   -3.7792    0.0000 C   0  0  0  0  0  0  0  0  0  0  0  0
    3.5292   -2.9542    0.0000 C   0  0  0  0  0  0  0  0  0  0  0  0
    4.9625   -2.9542    0.0000 C   0  0  0  0  0  0  0  0  0  0  0  0
    4.2500   -4.1917    0.0000 C   0  0  0  0  0  0  0  0  0  0  0  0
    3.5375   -3.7792    0.0000 C   0  0  0  0  0  0  0  0  0  0  0  0
    4.2500   -2.5417    0.0000 C   0  0  0  0  0  0  0  0  0  0  0  0
    9.9500   -5.0250    0.0000 C   0  0  0  0  0  0  0  0  0  0  0  0
    9.2292   -5.4292    0.0000 C   0  0  0  0  0  0  0  0  0  0  0  0
    9.9542   -4.1917    0.0000 C   0  0  0  0  0  0  0  0  0  0  0  0
    9.2375   -2.9542    0.0000 C   0  0  0  0  0  0  0  0  0  0  0  0
    7.8042   -5.4292    0.0000 C   0  0  0  0  0  0  0  0  0  0  0  0
    2.8167   -2.5417    0.0000 C   0  0  0  0  0  0  0  0  0  0  0  0
  2  1  1  0  0  0  0
  3  2  1  0  0  0  0
  4  1  1  0  0  0  0
  5  1  2  0  0  0  0
  6  8  1  0  0  0  0
  7  3  2  0  0  0  0
  8  3  1  0  0  0  0
  9  6  1  0  0  0  0
 10 13  1  0  0  0  0
 11  9  2  0  0  0  0
 12  9  1  0  0  0  0
 13 12  2  0  0  0  0
 14 11  1  0  0  0  0
 14 10  2  0  0  0  0
 15 16  2  0  0  0  0
 15 17  1  0  0  0  0
 16  5  1  0  0  0  0
 17  4  2  0  0  0  0
 18  4  1  0  0  0  0
 19  5  1  0  0  0  0
 20 10  1  0  0  0  0
M  END
>  <ID>
6175000

>  <Supplier>
ChemBridge

>  <clogP>
3.430000000000000e+000

>  <RB>
4

>  <tPSA>
2.910000000000000e+001

>  <Hacc>
1

>  <Hdon>
1

>  <LogSw>
-4.211000000000000e+000

>  <Group>
3

>  <Core>
431

$$$$
5943426
 OpenBabel03312015312D

 21 22  0  0  0  0  0  0  0  0999 V2000
    6.0750   -0.0292    0.0000 N   0  0  0  0  0  0  0  0  0  0  0  0
    5.3625    0.3833    0.0000 C   0  0  0  0  0  0  0  0  0  0  0  0
    6.7792   -0.4375    0.0000 C   0  0  0  0  0  0  0  0  0  0  0  0
    4.6500   -0.0292    0.0000 C   0  0  0  0  0  0  0  0  0  0  0  0
    1.7917   -0.0292    0.0000 C   0  0  0  0  0  0  0  0  0  0  0  0
    3.9375    0.3750    0.0000 C   0  0  0  0  0  0  0  0  0  0  0  0
    1.7917   -0.8667    0.0000 C   0  0  0  0  0  0  0  0  0  0  0  0
    2.5042    0.3750    0.0000 C   0  0  0  0  0  0  0  0  0  0  0  0
    7.4917   -0.0250    0.0000 C   0  0  0  0  0  0  0  0  0  0  0  0
    5.3542    1.2083    0.0000 O   0  0  0  0  0  0  0  0  0  0  0  0
    3.2250   -0.0292    0.0000 C   0  0  0  0  0  0  0  0  0  0  0  0
    2.5042   -1.2792    0.0000 C   0  0  0  0  0  0  0  0  0  0  0  0
    1.0792    0.3708    0.0000 Br  0  0  0  0  0  0  0  0  0  0  0  0
    7.4875    0.7958    0.0000 F   0  0  0  0  0  0  0  0  0  0  0  0
    3.2250   -0.8667    0.0000 C   0  0  0  0  0  0  0  0  0  0  0  0
    1.0792   -1.2792    0.0000 O   0  0  0  0  0  0  0  0  0  0  0  0
    6.7792   -1.2625    0.0000 C   0  0  0  0  0  0  0  0  0  0  0  0
    8.2042   -0.4292    0.0000 C   0  0  0  0  0  0  0  0  0  0  0  0
    1.0792   -2.1042    0.0000 C   0  0  0  0  0  0  0  0  0  0  0  0
    7.4917   -1.6667    0.0000 C   0  0  0  0  0  0  0  0  0  0  0  0
    8.2042   -1.2542    0.0000 C   0  0  0  0  0  0  0  0  0  0  0  0
  2  1  1  0  0  0  0
  3  1  1  0  0  0  0
  4  2  1  0  0  0  0
  5  8  1  0  0  0  0
  6  4  2  0  0  0  0
  7 12  1  0  0  0  0
  7  5  2  0  0  0  0
  8 11  2  0  0  0  0
  9  3  2  0  0  0  0
 10  2  2  0  0  0  0
 11  6  1  0  0  0  0
 12 15  2  0  0  0  0
 13  5  1  0  0  0  0
 14  9  1  0  0  0  0
 15 11  1  0  0  0  0
 16  7  1  0  0  0  0
 17  3  1  0  0  0  0
 18  9  1  0  0  0  0
 18 21  2  0  0  0  0
 19 16  1  0  0  0  0
 20 17  2  0  0  0  0
 21 20  1  0  0  0  0
M  END
>  <ID>
5943426

>  <Supplier>
ChemBridge

>  <clogP>
4.150000000000000e+000

>  <RB>
3

>  <tPSA>
3.833000000000000e+001

>  <Hacc>
2

>  <Hdon>
1

>  <LogSw>
-5.297000000000000e+000

>  <Group>
2

>  <Core>
435

$$$$
7616844
 OpenBabel03312015312D

 28 31  0  0  0  0  0  0  0  0999 V2000
    0.7125   -9.1917    0.0000 S   0  0  0  0  0  0  0  0  0  0  0  0
    1.2000   -8.5167    0.0000 N   0  0  0  0  0  0  0  0  0  0  0  0
    0.7042   -7.8167    0.0000 C   0  0  0  0  0  0  0  0  0  0  0  0
   -0.0875   -8.1125    0.0000 C   0  0  0  0  0  0  0  0  0  0  0  0
   -0.0833   -8.9417    0.0000 C   0  0  0  0  0  0  0  0  0  0  0  0
    2.0042   -6.0750    0.0000 C   0  0  0  0  0  0  0  0  0  0  0  0
    0.9542   -7.0292    0.0000 N   0  0  0  0  0  0  0  0  0  0  0  0
    1.4625   -5.4625    0.0000 O   0  0  0  0  0  0  0  0  0  0  0  0
    0.1417   -9.7792    0.0000 O   0  0  0  0  0  0  0  0  0  0  0  0
    1.3417   -9.5250    0.0000 O   0  0  0  0  0  0  0  0  0  0  0  0
    2.8167   -5.9042    0.0000 C   0  0  0  0  0  0  0  0  0  0  0  0
    0.4000   -6.4167    0.0000 C   0  0  0  0  0  0  0  0  0  0  0  0
    0.6542   -5.6292    0.0000 C   0  0  0  0  0  0  0  0  0  0  0  0
    1.7542   -6.8542    0.0000 O   0  0  0  0  0  0  0  0  0  0  0  0
    3.3667   -6.5167    0.0000 C   0  0  0  0  0  0  0  0  0  0  0  0
   -0.8125   -7.6917    0.0000 C   0  0  0  0  0  0  0  0  0  0  0  0
   -0.8125   -9.3625    0.0000 C   0  0  0  0  0  0  0  0  0  0  0  0
    3.0667   -5.1167    0.0000 C   0  0  0  0  0  0  0  0  0  0  0  0
   -0.4000   -6.6000    0.0000 C   0  0  0  0  0  0  0  0  0  0  0  0
    0.1000   -5.0250    0.0000 C   0  0  0  0  0  0  0  0  0  0  0  0
    3.1125   -7.3042    0.0000 C   0  0  0  0  0  0  0  0  0  0  0  0
    4.1750   -6.3500    0.0000 C   0  0  0  0  0  0  0  0  0  0  0  0
   -1.5333   -8.1125    0.0000 C   0  0  0  0  0  0  0  0  0  0  0  0
   -1.5333   -8.9417    0.0000 C   0  0  0  0  0  0  0  0  0  0  0  0
    3.8750   -4.9500    0.0000 C   0  0  0  0  0  0  0  0  0  0  0  0
   -0.7083   -5.2000    0.0000 C   0  0  0  0  0  0  0  0  0  0  0  0
   -0.9583   -5.9917    0.0000 C   0  0  0  0  0  0  0  0  0  0  0  0
    4.4292   -5.5625    0.0000 C   0  0  0  0  0  0  0  0  0  0  0  0
  2  1  1  0  0  0  0
  3  2  2  0  0  0  0
  3  4  1  0  0  0  0
  4  5  1  0  0  0  0
  5  1  1  0  0  0  0
  6  8  1  0  0  0  0
  7  3  1  0  0  0  0
  8 13  1  0  0  0  0
  9  1  2  0  0  0  0
 10  1  2  0  0  0  0
 11  6  1  0  0  0  0
 12  7  1  0  0  0  0
 13 12  2  0  0  0  0
 14  6  2  0  0  0  0
 15 11  2  0  0  0  0
 16  4  2  0  0  0  0
 16 23  1  0  0  0  0
 17  5  2  0  0  0  0
 18 11  1  0  0  0  0
 19 12  1  0  0  0  0
 20 13  1  0  0  0  0
 20 26  2  0  0  0  0
 21 15  1  0  0  0  0
 22 15  1  0  0  0  0
 22 28  2  0  0  0  0
 23 24  2  0  0  0  0
 24 17  1  0  0  0  0
 25 18  2  0  0  0  0
 26 27  1  0  0  0  0
 27 19  2  0  0  0  0
 28 25  1  0  0  0  0
M  END
>  <ID>
7616844

>  <Supplier>
ChemBridge

>  <clogP>
4.298000000000000e+000

>  <RB>
5

>  <tPSA>
8.483000000000003e+001

>  <Hacc>
5

>  <Hdon>
1

>  <LogSw>
-4.801000000000000e+000

>  <Group>
1

>  <Core>
446

$$$$
5344077
 OpenBabel03312015312D

 16 17  0  0  0  0  0  0  0  0999 V2000
   -2.3125   -0.4500    0.0000 N   0  0  0  0  0  0  0  0  0  0  0  0
   -2.4000    0.5500    0.0000 C   0  0  0  0  0  0  0  0  0  0  0  0
   -3.3958    0.7833    0.0000 S   0  0  0  0  0  0  0  0  0  0  0  0
   -3.2333   -0.8542    0.0000 C   0  0  0  0  0  0  0  0  0  0  0  0
   -3.9000   -0.0917    0.0000 C   0  0  0  0  0  0  0  0  0  0  0  0
   -1.4125   -0.9667    0.0000 C   0  0  0  0  0  0  0  0  0  0  0  0
   -1.6500    1.2625    0.0000 O   0  0  0  0  0  0  0  0  0  0  0  0
   -0.5208   -0.4667    0.0000 N   0  0  0  0  0  0  0  0  0  0  0  0
   -3.5625   -1.8292    0.0000 C   0  0  0  0  0  0  0  0  0  0  0  0
   -4.9208   -0.2875    0.0000 C   0  0  0  0  0  0  0  0  0  0  0  0
    0.3500   -0.9875    0.0000 C   0  0  0  0  0  0  0  0  0  0  0  0
   -0.5125    0.5625    0.0000 C   0  0  0  0  0  0  0  0  0  0  0  0
   -4.5708   -2.0500    0.0000 C   0  0  0  0  0  0  0  0  0  0  0  0
    0.3792    1.0625    0.0000 C   0  0  0  0  0  0  0  0  0  0  0  0
    1.2542   -0.4875    0.0000 C   0  0  0  0  0  0  0  0  0  0  0  0
   -5.2708   -1.2667    0.0000 C   0  0  0  0  0  0  0  0  0  0  0  0
  2  1  1  0  0  0  0
  3  2  1  0  0  0  0
  4  1  1  0  0  0  0
  5  4  1  0  0  0  0
  5  3  1  0  0  0  0
  6  1  1  0  0  0  0
  7  2  2  0  0  0  0
  8  6  1  0  0  0  0
  9  4  2  0  0  0  0
 10  5  2  0  0  0  0
 10 16  1  0  0  0  0
 11  8  1  0  0  0  0
 12  8  1  0  0  0  0
 13  9  1  0  0  0  0
 14 12  1  0  0  0  0
 15 11  1  0  0  0  0
 16 13  2  0  0  0  0
M  END
>  <ID>
5344077

>  <Supplier>
ChemBridge

>  <clogP>
2.240000000000000e+000

>  <RB>
1

>  <tPSA>
2.524000000000000e+001

>  <Hacc>
2

>  <Hdon>
0

>  <LogSw>
-1.829000000000000e+000

>  <Group>
1

$$$$
5344074
 OpenBabel03312015312D

 18 19  0  0  0  0  0  0  0  0999 V2000
   -0.5958    2.2125    0.0000 C   0  0  0  0  0  0  0  0  0  0  0  0
   -1.2833    1.8208    0.0000 N   0  0  0  0  0  0  0  0  0  0  0  0
   -0.5958    2.9958    0.0000 N   0  0  0  0  0  0  0  0  0  0  0  0
   -1.9708    2.2125    0.0000 C   0  0  0  0  0  0  0  0  0  0  0  0
   -1.9708    3.0000    0.0000 C   0  0  0  0  0  0  0  0  0  0  0  0
   -1.2833    3.4000    0.0000 C   0  0  0  0  0  0  0  0  0  0  0  0
   -1.2833    1.0125    0.0000 C   0  0  0  0  0  0  0  0  0  0  0  0
   -2.6500    1.8000    0.0000 O   0  0  0  0  0  0  0  0  0  0  0  0
    0.0875    1.8125    0.0000 S   0  0  0  0  0  0  0  0  0  0  0  0
   -1.2833    4.1875    0.0000 O   0  0  0  0  0  0  0  0  0  0  0  0
   -1.9458    0.6333    0.0000 C   0  0  0  0  0  0  0  0  0  0  0  0
   -0.5958    0.6333    0.0000 C   0  0  0  0  0  0  0  0  0  0  0  0
    0.7667    2.2083    0.0000 C   0  0  0  0  0  0  0  0  0  0  0  0
    1.4500    1.8125    0.0000 C   0  0  0  0  0  0  0  0  0  0  0  0
    2.1292    2.2083    0.0000 C   0  0  0  0  0  0  0  0  0  0  0  0
   -1.9333   -0.1542    0.0000 C   0  0  0  0  0  0  0  0  0  0  0  0
   -0.5958   -0.1667    0.0000 C   0  0  0  0  0  0  0  0  0  0  0  0
   -1.2625   -0.5542    0.0000 C   0  0  0  0  0  0  0  0  0  0  0  0
  2  1  1  0  0  0  0
  3  1  2  0  0  0  0
  4  2  1  0  0  0  0
  4  5  1  0  0  0  0
  5  6  2  0  0  0  0
  6  3  1  0  0  0  0
  7  2  1  0  0  0  0
  8  4  2  0  0  0  0
  9  1  1  0  0  0  0
 10  6  1  0  0  0  0
 11  7  2  0  0  0  0
 12  7  1  0  0  0  0
 13  9  1  0  0  0  0
 14 13  1  0  0  0  0
 15 14  1  0  0  0  0
 16 11  1  0  0  0  0
 16 18  2  0  0  0  0
 17 12  2  0  0  0  0
 18 17  1  0  0  0  0
M  END
>  <ID>
5344074

>  <Supplier>
ChemBridge

>  <clogP>
2.690000000000000e+000

>  <RB>
2

>  <tPSA>
5.512000000000000e+001

>  <Hacc>
3

>  <Hdon>
1

>  <LogSw>
-3.411000000000000e+000

>  <Group>
3

>  <Core>
036

$$$$
7947056
 OpenBabel03312015312D

 29 30  0  0  0  0  0  0  0  0999 V2000
    3.5667    3.7083    0.0000 C   0  0  0  0  0  0  0  0  0  0  0  0
    2.4125    4.0667    0.0000 C   0  0  0  0  0  0  0  0  0  0  0  0
    3.1250    3.0958    0.0000 C   0  0  0  0  0  0  0  0  0  0  0  0
    2.4125    3.3333    0.0000 C   0  0  0  0  0  0  0  0  0  0  0  0
    3.1250    4.3042    0.0000 S   0  0  0  0  0  0  0  0  0  0  0  0
    6.9417    3.0500    0.0000 N   0  3  0  0  0  0  0  0  0  0  0  0
    6.5667    3.7083    0.0000 C   0  0  0  0  0  0  0  0  0  0  0  0
    1.8042    4.5125    0.0000 C   0  0  0  0  0  0  0  0  0  0  0  0
    4.3167    3.7083    0.0000 N   0  0  0  0  0  0  0  0  0  0  0  0
    4.6917    4.3417    0.0000 C   0  0  0  0  0  0  0  0  0  0  0  0
    3.3542    2.3833    0.0000 C   0  0  0  0  0  0  0  0  0  0  0  0
    5.8167    3.7083    0.0000 C   0  0  0  0  0  0  0  0  0  0  0  0
    5.4417    4.3417    0.0000 C   0  0  0  0  0  0  0  0  0  0  0  0
    6.9417    4.3417    0.0000 C   0  0  0  0  0  0  0  0  0  0  0  0
    1.8792    5.2542    0.0000 N   0  0  0  0  0  0  0  0  0  0  0  0
    6.5667    2.4000    0.0000 O   0  5  0  0  0  0  0  0  0  0  0  0
    7.6917    3.0500    0.0000 O   0  0  0  0  0  0  0  0  0  0  0  0
    1.1167    4.2042    0.0000 O   0  0  0  0  0  0  0  0  0  0  0  0
    4.3167    4.9917    0.0000 O   0  0  0  0  0  0  0  0  0  0  0  0
    4.0917    2.2250    0.0000 O   0  0  0  0  0  0  0  0  0  0  0  0
    5.8167    4.9917    0.0000 C   0  0  0  0  0  0  0  0  0  0  0  0
    6.5667    4.9917    0.0000 C   0  0  0  0  0  0  0  0  0  0  0  0
    1.8042    2.8833    0.0000 C   0  0  0  0  0  0  0  0  0  0  0  0
    2.8542    1.8250    0.0000 O   0  0  0  0  0  0  0  0  0  0  0  0
    7.6917    4.3417    0.0000 O   0  0  0  0  0  0  0  0  0  0  0  0
    1.2792    5.7000    0.0000 C   0  0  0  0  0  0  0  0  0  0  0  0
    2.5667    5.5625    0.0000 C   0  0  0  0  0  0  0  0  0  0  0  0
    3.0875    1.1083    0.0000 C   0  0  0  0  0  0  0  0  0  0  0  0
    8.0667    4.9917    0.0000 C   0  0  0  0  0  0  0  0  0  0  0  0
  2  5  1  0  0  0  0
  3  1  2  0  0  0  0
  4  3  1  0  0  0  0
  4  2  2  0  0  0  0
  5  1  1  0  0  0  0
  6  7  1  0  0  0  0
  7 12  1  0  0  0  0
  8  2  1  0  0  0  0
  9  1  1  0  0  0  0
 10  9  1  0  0  0  0
 11  3  1  0  0  0  0
 12 13  2  0  0  0  0
 13 10  1  0  0  0  0
 14 22  1  0  0  0  0
 14  7  2  0  0  0  0
 15  8  1  0  0  0  0
 16  6  1  0  0  0  0
 17  6  2  0  0  0  0
 18  8  2  0  0  0  0
 19 10  2  0  0  0  0
 20 11  2  0  0  0  0
 21 13  1  0  0  0  0
 22 21  2  0  0  0  0
 23  4  1  0  0  0  0
 24 11  1  0  0  0  0
 25 14  1  0  0  0  0
 26 15  1  0  0  0  0
 27 15  1  0  0  0  0
 28 24  1  0  0  0  0
 29 25  1  0  0  0  0
M  CHG  2   6   1  16  -1
M  END
>  <ID>
7947056

>  <Supplier>
ChemBridge

>  <clogP>
1.528000000000000e+000

>  <RB>
4

>  <tPSA>
1.280800000000000e+002

>  <Hacc>
7

>  <Hdon>
1

>  <LogSw>
-3.967000000000000e+000

>  <Group>
1

>  <Core>
269

$$$$
9077635
 OpenBabel03312015312D

 24 26  0  0  0  0  0  0  0  0999 V2000
    4.2750    1.5708    0.0000 C   0  0  0  0  0  0  0  0  0  0  0  0
    4.9250    1.1958    0.0000 N   0  0  0  0  0  0  0  0  0  0  0  0
    4.2750    2.3208    0.0000 N   0  0  0  0  0  0  0  0  0  0  0  0
    5.5750    2.3208    0.0000 N   0  0  0  0  0  0  0  0  0  0  0  0
    4.9250    2.6958    0.0000 C   0  0  0  0  0  0  0  0  0  0  0  0
    5.5750    1.5708    0.0000 C   0  0  0  0  0  0  0  0  0  0  0  0
    5.5750    3.8208    0.0000 N   0  0  0  0  0  0  0  0  0  0  0  0
    4.9250    3.4458    0.0000 C   0  0  0  0  0  0  0  0  0  0  0  0
    3.6250    1.1958    0.0000 N   0  0  0  0  0  0  0  0  0  0  0  0
    6.2167    3.4458    0.0000 C   0  0  3  0  0  0  0  0  0  0  0  0
    6.2167    1.1958    0.0000 N   0  0  0  0  0  0  0  0  0  0  0  0
    2.9750    1.5708    0.0000 C   0  0  0  0  0  0  0  0  0  0  0  0
    1.6750    2.3208    0.0000 C   0  0  0  0  0  0  0  0  0  0  0  0
    5.5750    4.5625    0.0000 C   0  0  0  0  0  0  0  0  0  0  0  0
    2.3167    1.1958    0.0000 C   0  0  0  0  0  0  0  0  0  0  0  0
    2.9750    2.3208    0.0000 C   0  0  0  0  0  0  0  0  0  0  0  0
    2.3167    2.6958    0.0000 C   0  0  0  0  0  0  0  0  0  0  0  0
    1.6750    1.5708    0.0000 C   0  0  0  0  0  0  0  0  0  0  0  0
    1.0250    2.6958    0.0000 O   0  0  0  0  0  0  0  0  0  0  0  0
    6.2167    2.6958    0.0000 C   0  0  0  0  0  0  0  0  0  0  0  0
    6.8667    3.8208    0.0000 C   0  0  0  0  0  0  0  0  0  0  0  0
    0.3750    2.3208    0.0000 C   0  0  0  0  0  0  0  0  0  0  0  0
    6.2167    4.9375    0.0000 C   0  0  0  0  0  0  0  0  0  0  0  0
    6.8667    4.5625    0.0000 C   0  0  0  0  0  0  0  0  0  0  0  0
  2  1  1  0  0  0  0
  3  1  2  0  0  0  0
  4  5  2  0  0  0  0
  4  6  1  0  0  0  0
  5  3  1  0  0  0  0
  6  2  2  0  0  0  0
  7  8  1  0  0  0  0
  8  5  1  0  0  0  0
  9  1  1  0  0  0  0
 10  7  1  0  0  0  0
 11  6  1  0  0  0  0
 12  9  1  0  0  0  0
 13 17  1  0  0  0  0
 13 18  2  0  0  0  0
 14  7  1  0  0  0  0
 15 12  2  0  0  0  0
 16 12  1  0  0  0  0
 17 16  2  0  0  0  0
 18 15  1  0  0  0  0
 19 13  1  0  0  0  0
 20 10  1  0  0  0  0
 21 10  1  0  0  0  0
 22 19  1  0  0  0  0
 23 14  1  0  0  0  0
 24 23  1  0  0  0  0
 24 21  1  0  0  0  0
M  END
>  <ID>
9077635

>  <Supplier>
ChemBridge

>  <clogP>
3.225000000000000e+000

>  <RB>
4

>  <tPSA>
8.919000000000000e+001

>  <Hacc>
5

>  <Hdon>
2

>  <LogSw>
-3.341000000000000e+000

>  <Group>
2

>  <Core>
426

$$$$
9050476
 OpenBabel03312015312D

 19 21  0  0  0  0  0  0  0  0999 V2000
   -0.5958    1.0958    0.0000 C   0  0  3  0  0  0  0  0  0  0  0  0
   -1.1000    0.2000    0.0000 C   0  0  0  0  0  0  0  0  0  0  0  0
    0.4250    1.2125    0.0000 C   0  0  3  0  0  0  0  0  0  0  0  0
   -1.0250    2.0333    0.0000 C   0  0  3  0  0  0  0  0  0  0  0  0
    0.6250    2.2208    0.0000 C   0  0  3  0  0  0  0  0  0  0  0  0
   -0.5750   -0.6875    0.0000 N   0  0  0  0  0  0  0  0  0  0  0  0
    1.1167    0.4583    0.0000 C   0  0  0  0  0  0  0  0  0  0  0  0
   -0.2708    2.7250    0.0000 C   0  0  0  0  0  0  0  0  0  0  0  0
   -2.1333    0.1875    0.0000 O   0  0  0  0  0  0  0  0  0  0  0  0
   -0.6958    2.7958    0.0000 C   0  0  0  0  0  0  0  0  0  0  0  0
    0.1292    2.8958    0.0000 C   0  0  0  0  0  0  0  0  0  0  0  0
    0.8167   -0.5250    0.0000 O   0  0  0  0  0  0  0  0  0  0  0  0
    2.1250    0.6833    0.0000 O   0  0  0  0  0  0  0  0  0  0  0  0
    0.4500   -0.5917    0.0000 C   0  0  0  0  0  0  0  0  0  0  0  0
   -1.1458   -1.5417    0.0000 C   0  0  0  0  0  0  0  0  0  0  0  0
    1.1542   -1.3417    0.0000 C   0  0  0  0  0  0  0  0  0  0  0  0
   -0.8333   -2.5167    0.0000 C   0  0  0  0  0  0  0  0  0  0  0  0
    1.0125   -2.3625    0.0000 C   0  0  0  0  0  0  0  0  0  0  0  0
    0.1292   -2.8792    0.0000 C   0  0  0  0  0  0  0  0  0  0  0  0
  2  1  1  0  0  0  0
  3  1  1  0  0  0  0
  4  1  1  0  0  0  0
  5  3  1  0  0  0  0
  5 11  1  0  0  0  0
  6  2  1  0  0  0  0
  7  3  1  0  0  0  0
  8  4  1  0  0  0  0
  8  5  1  0  0  0  0
  9  2  2  0  0  0  0
 10  4  1  0  0  0  0
 11 10  1  0  0  0  0
 12  7  2  0  0  0  0
 13  7  1  0  0  0  0
 14  6  1  0  0  0  0
 15  6  1  0  0  0  0
 16 14  1  0  0  0  0
 17 15  1  0  0  0  0
 18 16  1  0  0  0  0
 19 17  1  0  0  0  0
 19 18  1  0  0  0  0
M  END
>  <ID>
9050476

>  <Supplier>
ChemBridge

>  <clogP>
2.023000000000000e+000

>  <RB>
2

>  <tPSA>
5.761000000000000e+001

>  <Hacc>
3

>  <Hdon>
1

>  <LogSw>
-3.448000000000000e+000

>  <Group>
2

$$$$
5344071
 OpenBabel03312015312D

 16 17  0  0  0  0  0  0  0  0999 V2000
   -0.5000   -1.5792    0.0000 C   0  0  0  0  0  0  0  0  0  0  0  0
   -1.7625   -0.8542    0.0000 C   0  0  0  0  0  0  0  0  0  0  0  0
    0.7542   -0.8542    0.0000 N   0  0  0  0  0  0  0  0  0  0  0  0
    0.7542    0.6000    0.0000 N   0  0  0  0  0  0  0  0  0  0  0  0
   -1.7625    0.6000    0.0000 C   0  0  0  0  0  0  0  0  0  0  0  0
   -0.5000    1.3208    0.0000 C   0  0  0  0  0  0  0  0  0  0  0  0
   -0.5000   -3.0375    0.0000 O   0  0  0  0  0  0  0  0  0  0  0  0
    2.0000   -1.5792    0.0000 C   0  0  0  0  0  0  0  0  0  0  0  0
   -3.0458   -1.5792    0.0000 Cl  0  0  0  0  0  0  0  0  0  0  0  0
   -3.0208    1.3458    0.0000 N   0  0  0  0  0  0  0  0  0  0  0  0
    3.2542   -0.8542    0.0000 C   0  0  0  0  0  0  0  0  0  0  0  0
    2.0000   -3.0375    0.0000 C   0  0  0  0  0  0  0  0  0  0  0  0
   -3.0208    2.8000    0.0000 C   0  0  0  0  0  0  0  0  0  0  0  0
    4.5167   -1.6000    0.0000 C   0  0  0  0  0  0  0  0  0  0  0  0
    3.2542   -3.7542    0.0000 C   0  0  0  0  0  0  0  0  0  0  0  0
    4.5167   -3.0167    0.0000 C   0  0  0  0  0  0  0  0  0  0  0  0
  2  1  1  0  0  0  0
  3  1  1  0  0  0  0
  4  3  1  0  0  0  0
  5  2  2  0  0  0  0
  5  6  1  0  0  0  0
  6  4  2  0  0  0  0
  7  1  2  0  0  0  0
  8  3  1  0  0  0  0
  9  2  1  0  0  0  0
 10  5  1  0  0  0  0
 11  8  2  0  0  0  0
 12  8  1  0  0  0  0
 13 10  1  0  0  0  0
 14 11  1  0  0  0  0
 14 16  2  0  0  0  0
 15 12  2  0  0  0  0
 16 15  1  0  0  0  0
M  END
>  <ID>
5344071

>  <Supplier>
ChemBridge

>  <clogP>
2.000000000000000e+000

>  <RB>
1

>  <tPSA>
4.692000000000000e+001

>  <Hacc>
2

>  <Hdon>
1

>  <LogSw>
-2.628000000000000e+000

>  <Group>
2

>  <Core>
179

$$$$
7026237
 OpenBabel03312015312D

 28 31  0  0  0  0  0  0  0  0999 V2000
    1.0500   -2.0375    0.0000 C   0  0  0  0  0  0  0  0  0  0  0  0
    1.0292   -1.2125    0.0000 C   0  0  0  0  0  0  0  0  0  0  0  0
    2.3125   -1.5917    0.0000 N   0  0  0  0  0  0  0  0  0  0  0  0
    1.8125   -0.9375    0.0000 C   0  0  0  0  0  0  0  0  0  0  0  0
    1.8375   -2.2750    0.0000 C   0  0  0  0  0  0  0  0  0  0  0  0
    5.5875   -1.3542    0.0000 N   0  0  0  0  0  0  0  0  0  0  0  0
    4.3500   -0.8375    0.0000 C   0  0  0  0  0  0  0  0  0  0  0  0
    4.7792   -1.5417    0.0000 C   0  0  0  0  0  0  0  0  0  0  0  0
    3.1292   -1.5792    0.0000 C   0  0  0  0  0  0  0  0  0  0  0  0
    5.6542   -0.5292    0.0000 C   0  0  0  0  0  0  0  0  0  0  0  0
    4.8917   -0.2125    0.0000 C   0  0  0  0  0  0  0  0  0  0  0  0
    3.5292   -0.8542    0.0000 C   0  0  0  0  0  0  0  0  0  0  0  0
    0.4625   -2.6167    0.0000 C   0  0  0  0  0  0  0  0  0  0  0  0
    0.4417   -0.6250    0.0000 C   0  0  0  0  0  0  0  0  0  0  0  0
    4.3792   -2.2667    0.0000 C   0  0  0  0  0  0  0  0  0  0  0  0
    3.5542   -2.2875    0.0000 C   0  0  0  0  0  0  0  0  0  0  0  0
    0.6750   -3.4167    0.0000 O   0  0  0  0  0  0  0  0  0  0  0  0
    0.6542    0.1750    0.0000 O   0  0  0  0  0  0  0  0  0  0  0  0
    2.0500   -3.0667    0.0000 C   0  0  0  0  0  0  0  0  0  0  0  0
    2.0250   -0.1375    0.0000 C   0  0  0  0  0  0  0  0  0  0  0  0
    6.3000   -1.7667    0.0000 C   0  0  0  0  0  0  0  0  0  0  0  0
    6.3042   -0.0292    0.0000 C   0  0  0  0  0  0  0  0  0  0  0  0
    4.7875    0.6083    0.0000 C   0  0  0  0  0  0  0  0  0  0  0  0
   -0.3375   -2.4042    0.0000 C   0  0  0  0  0  0  0  0  0  0  0  0
   -0.3583   -0.8375    0.0000 C   0  0  0  0  0  0  0  0  0  0  0  0
    6.2917   -2.5917    0.0000 C   0  0  0  0  0  0  0  0  0  0  0  0
    5.4417    1.1083    0.0000 C   0  0  0  0  0  0  0  0  0  0  0  0
    6.2042    0.7875    0.0000 C   0  0  0  0  0  0  0  0  0  0  0  0
  2  1  1  0  0  0  0
  3  5  1  0  0  0  0
  4  2  2  0  0  0  0
  4  3  1  0  0  0  0
  5  1  2  0  0  0  0
  6  8  1  0  0  0  0
  7 12  2  0  0  0  0
  8 15  2  0  0  0  0
  8  7  1  0  0  0  0
  9  3  1  0  0  0  0
 10 11  2  0  0  0  0
 10  6  1  0  0  0  0
 11  7  1  0  0  0  0
 12  9  1  0  0  0  0
 13  1  1  0  0  0  0
 14  2  1  0  0  0  0
 15 16  1  0  0  0  0
 16  9  2  0  0  0  0
 17 13  2  0  0  0  0
 18 14  2  0  0  0  0
 19  5  1  0  0  0  0
 20  4  1  0  0  0  0
 21  6  1  0  0  0  0
 22 10  1  0  0  0  0
 23 11  1  0  0  0  0
 24 13  1  0  0  0  0
 25 14  1  0  0  0  0
 26 21  1  0  0  0  0
 27 23  2  0  0  0  0
 28 27  1  0  0  0  0
 28 22  2  0  0  0  0
M  END
>  <ID>
7026237

>  <Supplier>
ChemBridge

>  <clogP>
5.700000000000000e+000

>  <RB>
3

>  <tPSA>
4.400000000000000e+001

>  <Hacc>
4

>  <Hdon>
0

>  <LogSw>
-7.893000000000000e+000

>  <Group>
3

$$$$
5263745
 OpenBabel03312015312D

 20 21  0  0  0  0  0  0  0  0999 V2000
   -0.2958    0.4208    0.0000 C   0  0  0  0  0  0  0  0  0  0  0  0
   -1.1625    0.9458    0.0000 C   0  0  0  0  0  0  0  0  0  0  0  0
   -1.1625    1.9333    0.0000 C   0  0  0  0  0  0  0  0  0  0  0  0
   -0.2958    2.4583    0.0000 C   0  0  0  0  0  0  0  0  0  0  0  0
   -0.2958   -0.5792    0.0000 N   0  0  0  0  0  0  0  0  0  0  0  0
    0.5875    0.9333    0.0000 O   0  0  0  0  0  0  0  0  0  0  0  0
   -0.2958    3.4458    0.0000 O   0  0  0  0  0  0  0  0  0  0  0  0
    0.5542   -1.0667    0.0000 C   0  0  0  0  0  0  0  0  0  0  0  0
    0.5792    1.9583    0.0000 O   0  0  0  0  0  0  0  0  0  0  0  0
    2.2875   -2.0667    0.0000 C   0  0  0  0  0  0  0  0  0  0  0  0
    1.4167   -0.5792    0.0000 C   0  0  0  0  0  0  0  0  0  0  0  0
    0.5542   -2.0667    0.0000 C   0  0  0  0  0  0  0  0  0  0  0  0
    2.2875   -1.0792    0.0000 C   0  0  0  0  0  0  0  0  0  0  0  0
    1.4167   -2.5667    0.0000 C   0  0  0  0  0  0  0  0  0  0  0  0
   -2.0333    0.4458    0.0000 C   0  0  0  0  0  0  0  0  0  0  0  0
   -2.0333    2.4333    0.0000 C   0  0  0  0  0  0  0  0  0  0  0  0
    3.1542   -2.5542    0.0000 O   0  0  0  0  0  0  0  0  0  0  0  0
    3.1667   -3.5500    0.0000 C   0  0  0  0  0  0  0  0  0  0  0  0
   -2.8958    0.9458    0.0000 C   0  0  0  0  0  0  0  0  0  0  0  0
   -2.8958    1.9583    0.0000 C   0  0  0  0  0  0  0  0  0  0  0  0
  2  1  1  0  0  0  0
  3  2  2  0  0  0  0
  4  3  1  0  0  0  0
  5  1  1  0  0  0  0
  6  1  2  0  0  0  0
  7  4  2  0  0  0  0
  8  5  1  0  0  0  0
  9  4  1  0  0  0  0
 10 14  2  0  0  0  0
 10 13  1  0  0  0  0
 11  8  1  0  0  0  0
 12  8  2  0  0  0  0
 13 11  2  0  0  0  0
 14 12  1  0  0  0  0
 15  2  1  0  0  0  0
 16  3  1  0  0  0  0
 16 20  2  0  0  0  0
 17 10  1  0  0  0  0
 18 17  1  0  0  0  0
 19 15  2  0  0  0  0
 20 19  1  0  0  0  0
M  END
>  <ID>
5263745

>  <Supplier>
ChemBridge

>  <clogP>
1.580000000000000e+000

>  <RB>
3

>  <tPSA>
7.563000000000000e+001

>  <Hacc>
4

>  <Hdon>
2

>  <LogSw>
-2.528000000000000e+000

>  <Group>
3

>  <Core>
511

$$$$
5263746
 OpenBabel03312015312D

 20 22  0  0  0  0  0  0  0  0999 V2000
   -3.2833    2.9625    0.0000 N   0  0  0  0  0  0  0  0  0  0  0  0
   -3.9625    3.3458    0.0000 C   0  0  0  0  0  0  0  0  0  0  0  0
   -1.9333    2.1833    0.0000 N   0  0  0  0  0  0  0  0  0  0  0  0
   -4.6458    2.9625    0.0000 N   0  0  0  0  0  0  0  0  0  0  0  0
   -2.6000    3.3458    0.0000 C   0  0  0  0  0  0  0  0  0  0  0  0
   -3.2833    2.1833    0.0000 C   0  0  0  0  0  0  0  0  0  0  0  0
   -1.2500    1.7958    0.0000 C   0  0  0  0  0  0  0  0  0  0  0  0
   -0.5708    2.1958    0.0000 C   0  0  0  0  0  0  0  0  0  0  0  0
   -1.9333    2.9625    0.0000 C   0  0  0  0  0  0  0  0  0  0  0  0
   -2.6000    1.7958    0.0000 C   0  0  0  0  0  0  0  0  0  0  0  0
    0.1000    1.8000    0.0000 C   0  0  0  0  0  0  0  0  0  0  0  0
    0.7667    2.1958    0.0000 C   0  0  0  0  0  0  0  0  0  0  0  0
    1.4375    1.8000    0.0000 F   0  0  0  0  0  0  0  0  0  0  0  0
   -3.9625    4.1375    0.0000 C   0  0  0  0  0  0  0  0  0  0  0  0
    0.1000    3.3625    0.0000 C   0  0  0  0  0  0  0  0  0  0  0  0
   -5.3000    3.3458    0.0000 C   0  0  0  0  0  0  0  0  0  0  0  0
   -0.5708    2.9708    0.0000 C   0  0  0  0  0  0  0  0  0  0  0  0
    0.7667    2.9708    0.0000 C   0  0  0  0  0  0  0  0  0  0  0  0
   -4.6458    4.5167    0.0000 C   0  0  0  0  0  0  0  0  0  0  0  0
   -5.3000    4.1375    0.0000 C   0  0  0  0  0  0  0  0  0  0  0  0
  2  1  1  0  0  0  0
  3 10  1  0  0  0  0
  3  9  1  0  0  0  0
  4  2  1  0  0  0  0
  5  1  1  0  0  0  0
  6  1  1  0  0  0  0
  7  3  1  0  0  0  0
  8  7  1  0  0  0  0
  9  5  1  0  0  0  0
 10  6  1  0  0  0  0
 11  8  1  0  0  0  0
 12 11  2  0  0  0  0
 12 18  1  0  0  0  0
 13 12  1  0  0  0  0
 14  2  2  0  0  0  0
 15 17  1  0  0  0  0
 16  4  2  0  0  0  0
 17  8  2  0  0  0  0
 18 15  2  0  0  0  0
 19 14  1  0  0  0  0
 20 19  2  0  0  0  0
 20 16  1  0  0  0  0
M  END
>  <ID>
5263746

>  <Supplier>
ChemBridge

>  <clogP>
2.910000000000000e+000

>  <RB>
3

>  <tPSA>
1.937000000000000e+001

>  <Hacc>
2

>  <Hdon>
0

>  <LogSw>
-2.656000000000000e+000

>  <Group>
2

>  <Core>
162

$$$$
9077634
 OpenBabel03312015312D

 18 19  0  0  0  0  0  0  0  0999 V2000
    6.2042    1.7125    0.0000 N   0  0  0  0  0  0  0  0  0  0  0  0
    7.3917    1.9708    0.0000 C   0  0  3  0  0  0  0  0  0  0  0  0
    6.2875    2.4583    0.0000 C   0  0  0  0  0  0  0  0  0  0  0  0
    8.1417    1.8958    0.0000 C   0  0  0  0  0  0  0  0  0  0  0  0
    6.8917    1.4083    0.0000 C   0  0  0  0  0  0  0  0  0  0  0  0
    7.0167    2.6208    0.0000 C   0  0  0  0  0  0  0  0  0  0  0  0
    5.5542    1.3375    0.0000 C   0  0  0  0  0  0  0  0  0  0  0  0
    8.5792    2.4958    0.0000 N   0  0  0  0  0  0  0  0  0  0  0  0
    5.7292    2.9625    0.0000 O   0  0  0  0  0  0  0  0  0  0  0  0
    8.4417    1.2083    0.0000 O   0  0  0  0  0  0  0  0  0  0  0  0
    4.9042    1.7125    0.0000 C   0  0  0  0  0  0  0  0  0  0  0  0
    4.2542    1.3375    0.0000 C   0  0  0  0  0  0  0  0  0  0  0  0
    5.5542    0.5875    0.0000 C   0  0  0  0  0  0  0  0  0  0  0  0
    4.9042    0.2125    0.0000 C   0  0  0  0  0  0  0  0  0  0  0  0
    9.3292    2.4208    0.0000 C   0  0  0  0  0  0  0  0  0  0  0  0
    8.2750    3.1833    0.0000 C   0  0  0  0  0  0  0  0  0  0  0  0
    4.2542    0.5875    0.0000 C   0  0  0  0  0  0  0  0  0  0  0  0
    3.6042    1.7125    0.0000 C   0  0  0  0  0  0  0  0  0  0  0  0
  2  5  1  0  0  0  0
  2  6  1  0  0  0  0
  3  1  1  0  0  0  0
  4  2  1  0  0  0  0
  5  1  1  0  0  0  0
  6  3  1  0  0  0  0
  7  1  1  0  0  0  0
  8  4  1  0  0  0  0
  9  3  2  0  0  0  0
 10  4  2  0  0  0  0
 11  7  1  0  0  0  0
 12 11  2  0  0  0  0
 12 17  1  0  0  0  0
 13  7  2  0  0  0  0
 14 13  1  0  0  0  0
 15  8  1  0  0  0  0
 16  8  1  0  0  0  0
 17 14  2  0  0  0  0
 18 12  1  0  0  0  0
M  END
>  <ID>
9077634

>  <Supplier>
ChemBridge

>  <clogP>
2.587000000000000e+000

>  <RB>
2

>  <tPSA>
4.061999999999998e+001

>  <Hacc>
2

>  <Hdon>
0

>  <LogSw>
-3.206000000000000e+000

>  <Group>
3

>  <Core>
124

$$$$
7995181
 OpenBabel03312015312D

 30 32  0  0  0  0  0  0  0  0999 V2000
    4.0500    2.3583    0.0000 N   0  0  0  0  0  0  0  0  0  0  0  0
    7.9500    3.1083    0.0000 C   0  0  0  0  0  0  0  0  0  0  0  0
    1.4542    0.8583    0.0000 C   0  0  0  0  0  0  0  0  0  0  0  0
    5.3500    3.1083    0.0000 N   0  0  0  0  0  0  0  0  0  0  0  0
    3.4000    1.9833    0.0000 C   0  0  0  0  0  0  0  0  0  0  0  0
    8.5917    3.4833    0.0000 N   0  0  0  0  0  0  0  0  0  0  0  0
    2.1042    1.2333    0.0000 C   0  0  0  0  0  0  0  0  0  0  0  0
    4.0500    3.1083    0.0000 C   0  0  0  0  0  0  0  0  0  0  0  0
    4.7000    1.9833    0.0000 C   0  0  0  0  0  0  0  0  0  0  0  0
    7.9500    2.3583    0.0000 O   0  0  0  0  0  0  0  0  0  0  0  0
    0.8042    1.2333    0.0000 O   0  0  0  0  0  0  0  0  0  0  0  0
    7.3000    3.4833    0.0000 N   0  0  0  0  0  0  0  0  0  0  0  0
    3.4000    1.2333    0.0000 C   0  0  0  0  0  0  0  0  0  0  0  0
    2.7500    2.3583    0.0000 C   0  0  0  0  0  0  0  0  0  0  0  0
    2.1042    1.9833    0.0000 C   0  0  0  0  0  0  0  0  0  0  0  0
    2.7500    0.8583    0.0000 C   0  0  0  0  0  0  0  0  0  0  0  0
    4.7000    3.4833    0.0000 C   0  0  0  0  0  0  0  0  0  0  0  0
    5.3500    2.3583    0.0000 C   0  0  0  0  0  0  0  0  0  0  0  0
    9.2417    3.1083    0.0000 C   0  0  0  0  0  0  0  0  0  0  0  0
    1.4542    0.1083    0.0000 O   0  0  0  0  0  0  0  0  0  0  0  0
   10.5417    2.3583    0.0000 C   0  0  0  0  0  0  0  0  0  0  0  0
    9.8917    3.4833    0.0000 C   0  0  0  0  0  0  0  0  0  0  0  0
    9.2417    2.3583    0.0000 C   0  0  0  0  0  0  0  0  0  0  0  0
    6.6500    3.1083    0.0000 C   0  0  0  0  0  0  0  0  0  0  0  0
    9.8917    1.9833    0.0000 C   0  0  0  0  0  0  0  0  0  0  0  0
   10.5417    3.1083    0.0000 C   0  0  0  0  0  0  0  0  0  0  0  0
    6.0000    3.4833    0.0000 C   0  0  0  0  0  0  0  0  0  0  0  0
   11.1917    1.9833    0.0000 O   0  0  0  0  0  0  0  0  0  0  0  0
    0.8042   -0.2667    0.0000 C   0  0  0  0  0  0  0  0  0  0  0  0
   11.8417    2.3583    0.0000 C   0  0  0  0  0  0  0  0  0  0  0  0
  2 12  1  0  0  0  0
  3  7  1  0  0  0  0
  4 18  1  0  0  0  0
  4 17  1  0  0  0  0
  5  1  1  0  0  0  0
  6  2  1  0  0  0  0
  7 15  1  0  0  0  0
  7 16  2  0  0  0  0
  8  1  1  0  0  0  0
  9  1  1  0  0  0  0
 10  2  2  0  0  0  0
 11  3  2  0  0  0  0
 12 24  1  0  0  0  0
 13  5  2  0  0  0  0
 14  5  1  0  0  0  0
 15 14  2  0  0  0  0
 16 13  1  0  0  0  0
 17  8  1  0  0  0  0
 18  9  1  0  0  0  0
 19  6  1  0  0  0  0
 20  3  1  0  0  0  0
 21 25  1  0  0  0  0
 21 26  2  0  0  0  0
 22 19  2  0  0  0  0
 23 19  1  0  0  0  0
 24 27  1  0  0  0  0
 25 23  2  0  0  0  0
 26 22  1  0  0  0  0
 27  4  1  0  0  0  0
 28 21  1  0  0  0  0
 29 20  1  0  0  0  0
 30 28  1  0  0  0  0
M  END
>  <ID>
7995181

>  <Supplier>
ChemBridge

>  <clogP>
3.050000000000000e+000

>  <RB>
6

>  <tPSA>
8.314000000000000e+001

>  <Hacc>
5

>  <Hdon>
2

>  <LogSw>
-4.811999999999999e+000

>  <Group>
2

>  <Core>
162

$$$$
5263742
 OpenBabel03312015312D

 20 22  0  0  0  0  0  0  0  0999 V2000
   -0.6458    2.0708    0.0000 C   0  0  0  0  0  0  0  0  0  0  0  0
   -1.9708    2.0708    0.0000 N   0  0  0  0  0  0  0  0  0  0  0  0
   -1.3125    1.6958    0.0000 C   0  0  0  0  0  0  0  0  0  0  0  0
   -2.6458    1.6958    0.0000 C   0  0  0  0  0  0  0  0  0  0  0  0
   -3.3125    2.0708    0.0000 C   0  0  0  0  0  0  0  0  0  0  0  0
    0.0042    1.7000    0.0000 C   0  0  0  0  0  0  0  0  0  0  0  0
   -0.6458    2.8500    0.0000 C   0  0  0  0  0  0  0  0  0  0  0  0
   -3.3125    2.8708    0.0000 C   0  0  0  0  0  0  0  0  0  0  0  0
   -1.9708    2.8708    0.0000 C   0  0  0  0  0  0  0  0  0  0  0  0
   -2.6458    3.2333    0.0000 C   0  0  0  0  0  0  0  0  0  0  0  0
    0.6792    2.0708    0.0000 C   0  0  0  0  0  0  0  0  0  0  0  0
    0.0042    3.2458    0.0000 C   0  0  0  0  0  0  0  0  0  0  0  0
    0.6792    2.8500    0.0000 C   0  0  0  0  0  0  0  0  0  0  0  0
    0.0042    4.0167    0.0000 Br  0  0  0  0  0  0  0  0  0  0  0  0
    0.0042    0.9458    0.0000 O   0  0  0  0  0  0  0  0  0  0  0  0
   -3.9708    1.6958    0.0000 C   0  0  0  0  0  0  0  0  0  0  0  0
   -3.9708    3.2333    0.0000 C   0  0  0  0  0  0  0  0  0  0  0  0
    0.6792    0.5500    0.0000 C   0  0  0  0  0  0  0  0  0  0  0  0
   -4.6333    2.0833    0.0000 C   0  0  0  0  0  0  0  0  0  0  0  0
   -4.6333    2.8500    0.0000 C   0  0  0  0  0  0  0  0  0  0  0  0
  2  3  1  0  0  0  0
  3  1  1  0  0  0  0
  4  2  1  0  0  0  0
  5  4  1  0  0  0  0
  6  1  1  0  0  0  0
  7  1  2  0  0  0  0
  8 10  1  0  0  0  0
  8  5  2  0  0  0  0
  9  2  1  0  0  0  0
 10  9  1  0  0  0  0
 11  6  2  0  0  0  0
 12  7  1  0  0  0  0
 13 12  2  0  0  0  0
 13 11  1  0  0  0  0
 14 12  1  0  0  0  0
 15  6  1  0  0  0  0
 16  5  1  0  0  0  0
 17  8  1  0  0  0  0
 18 15  1  0  0  0  0
 19 16  2  0  0  0  0
 20 17  2  0  0  0  0
 20 19  1  0  0  0  0
M  END
>  <ID>
5263742

>  <Supplier>
ChemBridge

>  <clogP>
4.560000000000000e+000

>  <RB>
2

>  <tPSA>
1.247000000000000e+001

>  <Hacc>
2

>  <Hdon>
0

>  <LogSw>
-4.509000000000000e+000

>  <Group>
2

$$$$
9005448
 OpenBabel03312015312D

 25 27  0  0  0  0  0  0  0  0999 V2000
    6.3542    2.4083    0.0000 N   0  0  0  0  0  0  0  0  0  0  0  0
    7.0417    2.7083    0.0000 C   0  0  0  0  0  0  0  0  0  0  0  0
    6.9625    3.4583    0.0000 N   0  0  0  0  0  0  0  0  0  0  0  0
    5.8542    2.9625    0.0000 C   0  0  0  0  0  0  0  0  0  0  0  0
    6.2292    3.6125    0.0000 O   0  0  0  0  0  0  0  0  0  0  0  0
    7.6917    2.3333    0.0000 C   0  0  0  0  0  0  0  0  0  0  0  0
    4.0542    2.1208    0.0000 C   0  0  0  0  0  0  0  0  0  0  0  0
    4.8042    2.2083    0.0000 N   0  0  0  0  0  0  0  0  0  0  0  0
    7.6917    1.5833    0.0000 C   0  0  0  0  0  0  0  0  0  0  0  0
    3.6167    2.7250    0.0000 O   0  0  0  0  0  0  0  0  0  0  0  0
    5.1042    2.8833    0.0000 C   0  0  0  0  0  0  0  0  0  0  0  0
    3.7500    1.4333    0.0000 C   0  0  0  0  0  0  0  0  0  0  0  0
    3.0042    1.3583    0.0000 C   0  0  0  0  0  0  0  0  0  0  0  0
    1.5125    1.2000    0.0000 C   0  0  0  0  0  0  0  0  0  0  0  0
    8.3417    1.2083    0.0000 C   0  0  0  0  0  0  0  0  0  0  0  0
    2.7000    0.6708    0.0000 C   0  0  0  0  0  0  0  0  0  0  0  0
    2.5667    1.9625    0.0000 C   0  0  0  0  0  0  0  0  0  0  0  0
    1.8167    1.8833    0.0000 C   0  0  0  0  0  0  0  0  0  0  0  0
    1.9542    0.5958    0.0000 C   0  0  0  0  0  0  0  0  0  0  0  0
    0.7667    1.1208    0.0000 O   0  0  0  0  0  0  0  0  0  0  0  0
    8.3417    2.7083    0.0000 C   0  0  0  0  0  0  0  0  0  0  0  0
    8.9875    2.3333    0.0000 C   0  0  0  0  0  0  0  0  0  0  0  0
    8.9875    1.5833    0.0000 C   0  0  0  0  0  0  0  0  0  0  0  0
    8.3417    0.4583    0.0000 C   0  0  0  0  0  0  0  0  0  0  0  0
    0.4625    0.4375    0.0000 C   0  0  0  0  0  0  0  0  0  0  0  0
  2  1  1  0  0  0  0
  3  2  2  0  0  0  0
  4  1  2  0  0  0  0
  5  4  1  0  0  0  0
  5  3  1  0  0  0  0
  6  2  1  0  0  0  0
  7  8  1  0  0  0  0
  8 11  1  0  0  0  0
  9  6  2  0  0  0  0
 10  7  2  0  0  0  0
 11  4  1  0  0  0  0
 12  7  1  0  0  0  0
 13 12  1  0  0  0  0
 14 18  2  0  0  0  0
 14 19  1  0  0  0  0
 15  9  1  0  0  0  0
 16 13  1  0  0  0  0
 17 13  2  0  0  0  0
 18 17  1  0  0  0  0
 19 16  2  0  0  0  0
 20 14  1  0  0  0  0
 21  6  1  0  0  0  0
 22 21  2  0  0  0  0
 23 22  1  0  0  0  0
 23 15  2  0  0  0  0
 24 15  1  0  0  0  0
 25 20  1  0  0  0  0
M  END
>  <ID>
9005448

>  <Supplier>
ChemBridge

>  <clogP>
2.590000000000000e+000

>  <RB>
5

>  <tPSA>
7.725000000000000e+001

>  <Hacc>
5

>  <Hdon>
1

>  <LogSw>
-3.871999999999999e+000

>  <Group>
2

>  <Core>
204

$$$$
5263749
 OpenBabel03312015312D

 24 26  0  0  0  0  0  0  0  0999 V2000
    0.0875    4.1042    0.0000 N   0  3  0  0  0  0  0  0  0  0  0  0
   -3.2958    2.9625    0.0000 N   0  0  0  0  0  0  0  0  0  0  0  0
   -0.5958    2.1708    0.0000 C   0  0  0  0  0  0  0  0  0  0  0  0
    0.0792    3.3208    0.0000 C   0  0  0  0  0  0  0  0  0  0  0  0
   -1.9458    2.1625    0.0000 N   0  0  0  0  0  0  0  0  0  0  0  0
   -0.5958    2.9583    0.0000 C   0  0  0  0  0  0  0  0  0  0  0  0
   -3.9625    3.3458    0.0000 C   0  0  0  0  0  0  0  0  0  0  0  0
   -1.2625    1.7833    0.0000 C   0  0  0  0  0  0  0  0  0  0  0  0
    0.7375    4.5042    0.0000 O   0  5  0  0  0  0  0  0  0  0  0  0
    0.0792    1.7833    0.0000 C   0  0  0  0  0  0  0  0  0  0  0  0
   -0.5833    4.5000    0.0000 O   0  0  0  0  0  0  0  0  0  0  0  0
   -3.2958    2.1625    0.0000 C   0  0  0  0  0  0  0  0  0  0  0  0
   -2.6125    3.3458    0.0000 C   0  0  0  0  0  0  0  0  0  0  0  0
   -3.9625    4.1375    0.0000 C   0  0  0  0  0  0  0  0  0  0  0  0
    0.7500    2.9583    0.0000 C   0  0  0  0  0  0  0  0  0  0  0  0
    0.7500    2.1708    0.0000 C   0  0  0  0  0  0  0  0  0  0  0  0
   -1.9458    2.9625    0.0000 C   0  0  0  0  0  0  0  0  0  0  0  0
   -2.6125    1.7833    0.0000 C   0  0  0  0  0  0  0  0  0  0  0  0
    0.0792    1.0000    0.0000 Cl  0  0  0  0  0  0  0  0  0  0  0  0
   -3.3000    4.5292    0.0000 F   0  0  0  0  0  0  0  0  0  0  0  0
   -4.6458    2.9625    0.0000 C   0  0  0  0  0  0  0  0  0  0  0  0
   -4.6458    4.5167    0.0000 C   0  0  0  0  0  0  0  0  0  0  0  0
   -5.3125    3.3458    0.0000 C   0  0  0  0  0  0  0  0  0  0  0  0
   -5.3125    4.1375    0.0000 C   0  0  0  0  0  0  0  0  0  0  0  0
  2 12  1  0  0  0  0
  3  6  2  0  0  0  0
  3 10  1  0  0  0  0
  4  1  1  0  0  0  0
  5  8  1  0  0  0  0
  6  4  1  0  0  0  0
  7  2  1  0  0  0  0
  8  3  1  0  0  0  0
  9  1  1  0  0  0  0
 10 16  2  0  0  0  0
 11  1  2  0  0  0  0
 12 18  1  0  0  0  0
 13 17  1  0  0  0  0
 13  2  1  0  0  0  0
 14  7  2  0  0  0  0
 15  4  2  0  0  0  0
 16 15  1  0  0  0  0
 17  5  1  0  0  0  0
 18  5  1  0  0  0  0
 19 10  1  0  0  0  0
 20 14  1  0  0  0  0
 21  7  1  0  0  0  0
 22 14  1  0  0  0  0
 23 21  2  0  0  0  0
 24 23  1  0  0  0  0
 24 22  2  0  0  0  0
M  CHG  2   1   1   9  -1
M  END
>  <ID>
5263749

>  <Supplier>
ChemBridge

>  <clogP>
3.630000000000000e+000

>  <RB>
3

>  <tPSA>
4.962000000000000e+001

>  <Hacc>
3

>  <Hdon>
0

>  <LogSw>
-4.233000000000001e+000

>  <Group>
2

>  <Core>
162

$$$$
7026238
 OpenBabel03312015312D

 21 22  0  0  0  0  0  0  0  0999 V2000
    2.7292   -1.4792    0.0000 C   0  0  0  0  0  0  0  0  0  0  0  0
    3.4417    0.6083    0.0000 C   0  0  0  0  0  0  0  0  0  0  0  0
    3.4500   -0.2167    0.0000 N   0  0  0  0  0  0  0  0  0  0  0  0
    3.4417   -1.8917    0.0000 C   0  0  0  0  0  0  0  0  0  0  0  0
    2.7292   -0.6417    0.0000 C   0  0  0  0  0  0  0  0  0  0  0  0
    4.1625    1.0208    0.0000 C   0  0  0  0  0  0  0  0  0  0  0  0
    4.2417    1.8375    0.0000 S   0  0  0  0  0  0  0  0  0  0  0  0
    4.1667   -1.4792    0.0000 N   0  0  0  0  0  0  0  0  0  0  0  0
    4.9292    0.6750    0.0000 C   0  0  0  0  0  0  0  0  0  0  0  0
    2.7250    1.0208    0.0000 O   0  0  0  0  0  0  0  0  0  0  0  0
    5.0542    2.0083    0.0000 C   0  0  0  0  0  0  0  0  0  0  0  0
    3.4417   -2.7250    0.0000 O   0  0  0  0  0  0  0  0  0  0  0  0
    5.4667    1.2875    0.0000 C   0  0  0  0  0  0  0  0  0  0  0  0
    4.8792   -1.8917    0.0000 C   0  0  0  0  0  0  0  0  0  0  0  0
    2.0042   -1.8917    0.0000 C   0  0  0  0  0  0  0  0  0  0  0  0
    2.0042   -0.2292    0.0000 C   0  0  0  0  0  0  0  0  0  0  0  0
    5.6042   -1.4792    0.0000 C   0  0  0  0  0  0  0  0  0  0  0  0
    1.2917   -1.4792    0.0000 C   0  0  0  0  0  0  0  0  0  0  0  0
    6.3167   -1.8917    0.0000 C   0  0  0  0  0  0  0  0  0  0  0  0
    5.6000   -0.6542    0.0000 C   0  0  0  0  0  0  0  0  0  0  0  0
    1.2917   -0.6417    0.0000 C   0  0  0  0  0  0  0  0  0  0  0  0
  2  3  1  0  0  0  0
  3  5  1  0  0  0  0
  4  1  1  0  0  0  0
  5  1  1  0  0  0  0
  6  2  1  0  0  0  0
  7  6  1  0  0  0  0
  8  4  1  0  0  0  0
  9  6  2  0  0  0  0
 10  2  2  0  0  0  0
 11  7  1  0  0  0  0
 12  4  2  0  0  0  0
 13  9  1  0  0  0  0
 13 11  2  0  0  0  0
 14  8  1  0  0  0  0
 15  1  2  0  0  0  0
 16  5  2  0  0  0  0
 16 21  1  0  0  0  0
 17 14  1  0  0  0  0
 18 15  1  0  0  0  0
 19 17  1  0  0  0  0
 20 17  1  0  0  0  0
 21 18  2  0  0  0  0
M  END
>  <ID>
7026238

>  <Supplier>
ChemBridge

>  <clogP>
3.160000000000000e+000

>  <RB>
4

>  <tPSA>
5.820000000000000e+001

>  <Hacc>
2

>  <Hdon>
2

>  <LogSw>
-4.103999999999998e+000

>  <Group>
3

>  <Core>
141

$$$$
9027514
 OpenBabel03312015312D

 21 22  0  0  0  0  0  0  0  0999 V2000
    3.8792   -2.7875    0.0000 C   0  0  0  0  0  0  0  0  0  0  0  0
    2.4417   -2.7875    0.0000 C   0  0  0  0  0  0  0  0  0  0  0  0
    3.1667   -2.3750    0.0000 C   0  0  0  0  0  0  0  0  0  0  0  0
    2.4417   -3.6167    0.0000 C   0  0  0  0  0  0  0  0  0  0  0  0
    8.2000   -2.7875    0.0000 N   0  0  0  0  0  0  0  0  0  0  0  0
    3.8792   -3.6167    0.0000 C   0  0  0  0  0  0  0  0  0  0  0  0
    3.1667   -4.0292    0.0000 C   0  0  0  0  0  0  0  0  0  0  0  0
    9.6292   -3.6167    0.0000 O   0  0  0  0  0  0  0  0  0  0  0  0
    1.7292   -2.3750    0.0000 Cl  0  0  0  0  0  0  0  0  0  0  0  0
    3.1667   -4.8625    0.0000 Cl  0  0  0  0  0  0  0  0  0  0  0  0
    3.1667   -1.5500    0.0000 O   0  0  0  0  0  0  0  0  0  0  0  0
    4.6042   -2.3750    0.0000 C   0  0  0  0  0  0  0  0  0  0  0  0
    5.3167   -2.7875    0.0000 N   0  0  0  0  0  0  0  0  0  0  0  0
    7.4792   -2.3750    0.0000 C   0  0  0  0  0  0  0  0  0  0  0  0
    6.7625   -2.7875    0.0000 C   0  0  0  0  0  0  0  0  0  0  0  0
    8.9042   -2.3750    0.0000 C   0  0  0  0  0  0  0  0  0  0  0  0
    8.2000   -3.6167    0.0000 C   0  0  0  0  0  0  0  0  0  0  0  0
    6.0417   -2.3750    0.0000 C   0  0  0  0  0  0  0  0  0  0  0  0
    8.9042   -4.0292    0.0000 C   0  0  0  0  0  0  0  0  0  0  0  0
    9.6292   -2.7875    0.0000 C   0  0  0  0  0  0  0  0  0  0  0  0
    2.4417   -1.1292    0.0000 C   0  0  0  0  0  0  0  0  0  0  0  0
  2  3  2  0  0  0  0
  2  4  1  0  0  0  0
  3  1  1  0  0  0  0
  4  7  2  0  0  0  0
  5 14  1  0  0  0  0
  6  1  2  0  0  0  0
  7  6  1  0  0  0  0
  8 19  1  0  0  0  0
  9  2  1  0  0  0  0
 10  7  1  0  0  0  0
 11  3  1  0  0  0  0
 12  1  1  0  0  0  0
 13 12  1  0  0  0  0
 14 15  1  0  0  0  0
 15 18  1  0  0  0  0
 16  5  1  0  0  0  0
 17  5  1  0  0  0  0
 18 13  1  0  0  0  0
 19 17  1  0  0  0  0
 20 16  1  0  0  0  0
 20  8  1  0  0  0  0
 21 11  1  0  0  0  0
M  END
>  <ID>
9027514

>  <Supplier>
ChemBridge

>  <clogP>
2.000000000000000e+000

>  <RB>
6

>  <tPSA>
3.373000000000000e+001

>  <Hacc>
4

>  <Hdon>
1

>  <LogSw>
-2.934000000000000e+000

>  <Group>
3

$$$$
7012526
 OpenBabel03312015312D

 21 22  0  0  0  0  0  0  0  0999 V2000
    3.2250    0.7333    0.0000 N   0  0  0  0  0  0  0  0  0  0  0  0
    3.8667    0.3583    0.0000 C   0  0  0  0  0  0  0  0  0  0  0  0
    2.5042    0.3250    0.0000 C   0  0  0  0  0  0  0  0  0  0  0  0
   -0.0958    0.3458    0.0000 C   0  0  0  0  0  0  0  0  0  0  0  0
    4.5167    0.7333    0.0000 C   0  0  0  0  0  0  0  0  0  0  0  0
    0.5625    0.7208    0.0000 C   0  0  0  0  0  0  0  0  0  0  0  0
    1.2042    0.3375    0.0000 O   0  0  0  0  0  0  0  0  0  0  0  0
   -0.7375    0.7333    0.0000 C   0  0  0  0  0  0  0  0  0  0  0  0
    2.5000   -0.5000    0.0000 O   0  0  0  0  0  0  0  0  0  0  0  0
    0.5667    1.4708    0.0000 C   0  0  0  0  0  0  0  0  0  0  0  0
    1.8542    0.7083    0.0000 C   0  0  0  0  0  0  0  0  0  0  0  0
   -0.7333    1.4833    0.0000 C   0  0  0  0  0  0  0  0  0  0  0  0
   -0.0833    1.8458    0.0000 C   0  0  0  0  0  0  0  0  0  0  0  0
   -1.3833    1.8583    0.0000 Br  0  0  0  0  0  0  0  0  0  0  0  0
    4.5250    1.4833    0.0000 C   0  0  0  0  0  0  0  0  0  0  0  0
    5.1792    1.8583    0.0000 O   0  0  0  0  0  0  0  0  0  0  0  0
    3.8667   -0.3917    0.0000 C   0  0  0  0  0  0  0  0  0  0  0  0
    5.1667    0.3500    0.0000 C   0  0  0  0  0  0  0  0  0  0  0  0
   -0.0958   -0.4042    0.0000 C   0  0  0  0  0  0  0  0  0  0  0  0
    5.1667   -0.4000    0.0000 C   0  0  0  0  0  0  0  0  0  0  0  0
    4.5125   -0.7667    0.0000 C   0  0  0  0  0  0  0  0  0  0  0  0
  2  1  1  0  0  0  0
  3  1  1  0  0  0  0
  4  6  2  0  0  0  0
  5  2  1  0  0  0  0
  6  7  1  0  0  0  0
  7 11  1  0  0  0  0
  8  4  1  0  0  0  0
  9  3  2  0  0  0  0
 10  6  1  0  0  0  0
 11  3  1  0  0  0  0
 12 13  1  0  0  0  0
 12  8  2  0  0  0  0
 13 10  2  0  0  0  0
 14 12  1  0  0  0  0
 15  5  1  0  0  0  0
 16 15  1  0  0  0  0
 17  2  2  0  0  0  0
 18  5  2  0  0  0  0
 19  4  1  0  0  0  0
 20 21  2  0  0  0  0
 20 18  1  0  0  0  0
 21 17  1  0  0  0  0
M  END
>  <ID>
7012526

>  <Supplier>
ChemBridge

>  <clogP>
2.490000000000000e+000

>  <RB>
5

>  <tPSA>
5.856000000000000e+001

>  <Hacc>
3

>  <Hdon>
2

>  <LogSw>
-3.880000000000000e+000

>  <Group>
3

>  <Core>
315

$$$$
9146546
 OpenBabel03312015312D

 20 21  0  0  0  0  0  0  0  0999 V2000
    3.5167    1.0583    0.0000 S   0  0  0  0  0  0  0  0  0  0  0  0
    3.5167    1.8083    0.0000 C   0  0  0  0  0  0  0  0  0  0  0  0
    4.2417    0.8583    0.0000 N   0  0  0  0  0  0  0  0  0  0  0  0
    4.1667    2.1833    0.0000 C   0  0  0  0  0  0  0  0  0  0  0  0
    2.8667    2.1833    0.0000 C   0  0  0  0  0  0  0  0  0  0  0  0
    4.5125    0.1583    0.0000 N   0  0  0  0  0  0  0  0  0  0  0  0
    4.1667    2.9333    0.0000 C   0  0  0  0  0  0  0  0  0  0  0  0
    2.7667    1.1208    0.0000 O   0  0  0  0  0  0  0  0  0  0  0  0
    3.3875    0.3208    0.0000 O   0  0  0  0  0  0  0  0  0  0  0  0
    2.8667    2.9333    0.0000 C   0  0  0  0  0  0  0  0  0  0  0  0
    3.5167    3.3083    0.0000 C   0  0  0  0  0  0  0  0  0  0  0  0
    4.8250    1.3333    0.0000 C   0  0  0  0  0  0  0  0  0  0  0  0
    5.4542    0.9208    0.0000 C   0  0  0  0  0  0  0  0  0  0  0  0
    5.2625    0.2000    0.0000 C   0  0  0  0  0  0  0  0  0  0  0  0
    4.8167    3.3083    0.0000 Cl  0  0  0  0  0  0  0  0  0  0  0  0
    2.2167    1.8083    0.0000 O   0  0  0  0  0  0  0  0  0  0  0  0
    3.5167    4.0417    0.0000 C   0  0  0  0  0  0  0  0  0  0  0  0
    1.5667    2.1833    0.0000 C   0  0  0  0  0  0  0  0  0  0  0  0
    0.9167    1.8083    0.0000 C   0  0  0  0  0  0  0  0  0  0  0  0
    0.2667    2.1833    0.0000 C   0  0  0  0  0  0  0  0  0  0  0  0
  2  1  1  0  0  0  0
  3  1  1  0  0  0  0
  4  2  1  0  0  0  0
  5  2  2  0  0  0  0
  6  3  1  0  0  0  0
  7  4  2  0  0  0  0
  8  1  2  0  0  0  0
  9  1  2  0  0  0  0
 10  5  1  0  0  0  0
 11 10  2  0  0  0  0
 11  7  1  0  0  0  0
 12  3  1  0  0  0  0
 13 12  2  0  0  0  0
 14  6  2  0  0  0  0
 14 13  1  0  0  0  0
 15  7  1  0  0  0  0
 16  5  1  0  0  0  0
 17 11  1  0  0  0  0
 18 16  1  0  0  0  0
 19 18  1  0  0  0  0
 20 19  1  0  0  0  0
M  END
>  <ID>
9146546

>  <Supplier>
ChemBridge

>  <clogP>
2.834000000000000e+000

>  <RB>
2

>  <tPSA>
6.119000000000000e+001

>  <Hacc>
4

>  <Hdon>
0

>  <LogSw>
-3.916000000000000e+000

>  <Group>
2

$$$$
7640663
 OpenBabel03312015312D

 18 19  0  0  0  0  0  0  0  0999 V2000
    4.1750   -2.3000    0.0000 C   0  0  0  0  0  0  0  0  0  0  0  0
    6.7500   -0.8125    0.0000 N   0  0  0  0  0  0  0  0  0  0  0  0
    9.3125   -2.3000    0.0000 C   0  0  0  0  0  0  0  0  0  0  0  0
    2.6750    0.2750    0.0000 O   0  0  0  0  0  0  0  0  0  0  0  0
    4.1875   -5.2750    0.0000 O   0  0  0  0  0  0  0  0  0  0  0  0
   11.8625   -0.8125    0.0000 C   0  0  0  0  0  0  0  0  0  0  0  0
    2.1000   -7.3750    0.0000 C   0  0  0  0  0  0  0  0  0  0  0  0
    2.8750  -10.2500    0.0000 C   0  0  0  0  0  0  0  0  0  0  0  0
    9.3125   -5.2625    0.0000 C   0  0  0  0  0  0  0  0  0  0  0  0
   11.8500    2.1500    0.0000 C   0  0  0  0  0  0  0  0  0  0  0  0
   14.4250   -2.3000    0.0000 C   0  0  0  0  0  0  0  0  0  0  0  0
    5.7625  -11.0125    0.0000 C   0  0  0  0  0  0  0  0  0  0  0  0
    0.7750  -12.3500    0.0000 C   0  0  0  0  0  0  0  0  0  0  0  0
   11.8625   -6.7500    0.0000 C   0  0  0  0  0  0  0  0  0  0  0  0
   14.4250   -5.2625    0.0000 C   0  0  0  0  0  0  0  0  0  0  0  0
    6.5250  -13.9000    0.0000 C   0  0  0  0  0  0  0  0  0  0  0  0
    1.5500  -15.2125    0.0000 C   0  0  0  0  0  0  0  0  0  0  0  0
    4.4250  -16.0000    0.0000 C   0  0  0  0  0  0  0  0  0  0  0  0
  2  1  1  0  0  0  0
  3  2  1  0  0  0  0
  4  1  2  0  0  0  0
  5  1  1  0  0  0  0
  6  3  1  0  0  0  0
  7  5  1  0  0  0  0
  8  7  1  0  0  0  0
  9  3  2  0  0  0  0
 10  6  1  0  0  0  0
 11  6  2  0  0  0  0
 11 15  1  0  0  0  0
 12  8  1  0  0  0  0
 13  8  2  0  0  0  0
 14  9  1  0  0  0  0
 15 14  2  0  0  0  0
 16 12  2  0  0  0  0
 17 13  1  0  0  0  0
 18 17  2  0  0  0  0
 18 16  1  0  0  0  0
M  END
>  <ID>
7640663

>  <Supplier>
ChemBridge

>  <clogP>
3.118000000000000e+000

>  <RB>
4

>  <tPSA>
3.833000000000000e+001

>  <Hacc>
2

>  <Hdon>
1

>  <LogSw>
-4.382000000000000e+000

>  <Group>
2

$$$$
4015308
 OpenBabel03312015312D

  9  9  0  0  0  0  0  0  0  0999 V2000
   -1.6458   -1.9542    0.0000 C   0  0  0  0  0  0  0  0  0  0  0  0
   -0.8375   -2.1250    0.0000 C   0  0  0  0  0  0  0  0  0  0  0  0
   -0.9833   -0.7917    0.0000 N   0  0  0  0  0  0  0  0  0  0  0  0
   -0.4250   -1.4042    0.0000 O   0  0  0  0  0  0  0  0  0  0  0  0
   -1.7333   -1.1292    0.0000 C   0  0  0  0  0  0  0  0  0  0  0  0
   -0.5000   -2.8792    0.0000 N   0  0  0  0  0  0  0  0  0  0  0  0
   -2.2583   -2.5042    0.0000 C   0  0  0  0  0  0  0  0  0  0  0  0
   -2.4458   -0.7250    0.0000 C   0  0  0  0  0  0  0  0  0  0  0  0
   -3.1583   -1.1375    0.0000 C   0  0  0  0  0  0  0  0  0  0  0  0
  2  1  2  0  0  0  0
  3  5  2  0  0  0  0
  3  4  1  0  0  0  0
  4  2  1  0  0  0  0
  5  1  1  0  0  0  0
  6  2  1  0  0  0  0
  7  1  1  0  0  0  0
  8  5  1  0  0  0  0
  9  8  1  0  0  0  0
M  END
>  <ID>
4015308

>  <Supplier>
ChemBridge

>  <clogP>
7.400000000000000e-001

>  <RB>
0

>  <tPSA>
5.205000000000000e+001

>  <Hacc>
2

>  <Hdon>
1

>  <LogSw>
-8.770000000000000e-001

>  <Group>
3

$$$$
7640661
 OpenBabel03312015312D

 26 28  0  0  0  0  0  0  0  0999 V2000
    5.2625   -3.9292    0.0000 C   0  0  0  0  0  0  0  0  0  0  0  0
    4.5417   -3.5167    0.0000 C   0  0  0  0  0  0  0  0  0  0  0  0
    5.2625   -4.7625    0.0000 C   0  0  3  0  0  0  0  0  0  0  0  0
    3.8292   -3.9292    0.0000 N   0  0  0  0  0  0  0  0  0  0  0  0
    3.8292   -4.7625    0.0000 C   0  0  0  0  0  0  0  0  0  0  0  0
    4.5417   -5.1750    0.0000 N   0  0  0  0  0  0  0  0  0  0  0  0
    5.9750   -3.5167    0.0000 C   0  0  0  0  0  0  0  0  0  0  0  0
    5.9750   -5.1667    0.0000 C   0  0  0  0  0  0  0  0  0  0  0  0
    6.6792   -4.7625    0.0000 C   0  0  0  0  0  0  0  0  0  0  0  0
    7.3917   -5.1667    0.0000 C   0  0  0  0  0  0  0  0  0  0  0  0
    4.5417   -2.7042    0.0000 C   0  0  0  0  0  0  0  0  0  0  0  0
    3.1167   -5.1750    0.0000 O   0  0  0  0  0  0  0  0  0  0  0  0
    7.3917   -5.9917    0.0000 C   0  0  0  0  0  0  0  0  0  0  0  0
    5.9750   -5.9917    0.0000 C   0  0  0  0  0  0  0  0  0  0  0  0
    6.6917   -3.9250    0.0000 O   0  0  0  0  0  0  0  0  0  0  0  0
    6.6792   -6.4042    0.0000 C   0  0  0  0  0  0  0  0  0  0  0  0
    8.1167   -4.7500    0.0000 Cl  0  0  0  0  0  0  0  0  0  0  0  0
    5.9667   -2.6917    0.0000 O   0  0  0  0  0  0  0  0  0  0  0  0
    8.1167   -6.4125    0.0000 Cl  0  0  0  0  0  0  0  0  0  0  0  0
    3.8292   -2.2917    0.0000 C   0  0  0  0  0  0  0  0  0  0  0  0
    5.2542   -2.2917    0.0000 C   0  0  0  0  0  0  0  0  0  0  0  0
    6.6792   -2.2667    0.0000 C   0  0  0  0  0  0  0  0  0  0  0  0
    6.6750   -1.4417    0.0000 C   0  0  0  0  0  0  0  0  0  0  0  0
    5.2625   -1.4667    0.0000 C   0  0  0  0  0  0  0  0  0  0  0  0
    3.8292   -1.4667    0.0000 C   0  0  0  0  0  0  0  0  0  0  0  0
    4.5417   -1.0542    0.0000 C   0  0  0  0  0  0  0  0  0  0  0  0
  2  1  2  0  0  0  0
  3  1  1  0  0  0  0
  4  2  1  0  0  0  0
  4  5  1  0  0  0  0
  5  6  1  0  0  0  0
  6  3  1  0  0  0  0
  7  1  1  0  0  0  0
  8  3  1  0  0  0  0
  9  8  1  0  0  0  0
 10  9  2  0  0  0  0
 10 13  1  0  0  0  0
 11  2  1  0  0  0  0
 12  5  2  0  0  0  0
 13 16  2  0  0  0  0
 14  8  2  0  0  0  0
 15  7  2  0  0  0  0
 16 14  1  0  0  0  0
 17 10  1  0  0  0  0
 18  7  1  0  0  0  0
 19 13  1  0  0  0  0
 20 11  1  0  0  0  0
 21 11  2  0  0  0  0
 22 18  1  0  0  0  0
 23 22  1  0  0  0  0
 24 21  1  0  0  0  0
 25 20  2  0  0  0  0
 25 26  1  0  0  0  0
 26 24  2  0  0  0  0
M  END
>  <ID>
7640661

>  <Supplier>
ChemBridge

>  <clogP>
5.119000000000000e+000

>  <RB>
3

>  <tPSA>
6.743000000000001e+001

>  <Hacc>
3

>  <Hdon>
2

>  <LogSw>
-5.738000000000000e+000

>  <Group>
1

>  <Core>
072

$$$$
9146542
 OpenBabel03312015312D

 24 25  0  0  0  0  0  0  0  0999 V2000
    5.0625    1.6000    0.0000 N   0  0  0  0  0  0  0  0  0  0  0  0
    5.7917    1.4458    0.0000 C   0  0  0  0  0  0  0  0  0  0  0  0
    6.1667    2.0958    0.0000 N   0  0  0  0  0  0  0  0  0  0  0  0
    5.6667    2.6500    0.0000 N   0  0  0  0  0  0  0  0  0  0  0  0
    4.9792    2.3458    0.0000 C   0  0  0  0  0  0  0  0  0  0  0  0
    6.1000    0.7583    0.0000 S   0  0  0  0  0  0  0  0  0  0  0  0
    1.0875    2.3458    0.0000 C   0  0  0  0  0  0  0  0  0  0  0  0
    7.1500   -0.0042    0.0000 C   0  0  0  0  0  0  0  0  0  0  0  0
    1.0875    1.5958    0.0000 C   0  0  0  0  0  0  0  0  0  0  0  0
    1.7292    2.7208    0.0000 C   0  0  0  0  0  0  0  0  0  0  0  0
    7.8917   -0.0792    0.0000 O   0  0  0  0  0  0  0  0  0  0  0  0
    6.8417    0.6833    0.0000 C   0  0  0  0  0  0  0  0  0  0  0  0
    1.7292    1.2208    0.0000 C   0  0  0  0  0  0  0  0  0  0  0  0
    4.5042    1.1000    0.0000 C   0  0  0  0  0  0  0  0  0  0  0  0
    6.7042   -0.6125    0.0000 N   0  0  0  0  0  0  0  0  0  0  0  0
    2.3792    2.3458    0.0000 C   0  0  0  0  0  0  0  0  0  0  0  0
    2.3792    1.5958    0.0000 C   0  0  0  0  0  0  0  0  0  0  0  0
    4.3292    2.7208    0.0000 C   0  0  0  0  0  0  0  0  0  0  0  0
    0.4375    1.2208    0.0000 O   0  0  0  0  0  0  0  0  0  0  0  0
    3.6792    2.3458    0.0000 C   0  0  0  0  0  0  0  0  0  0  0  0
    0.4375    2.7208    0.0000 C   0  0  0  0  0  0  0  0  0  0  0  0
    3.0292    2.7208    0.0000 C   0  0  0  0  0  0  0  0  0  0  0  0
    0.4375    0.4708    0.0000 C   0  0  0  0  0  0  0  0  0  0  0  0
    3.7917    1.3333    0.0000 C   0  0  0  0  0  0  0  0  0  0  0  0
  2  1  1  0  0  0  0
  3  2  2  0  0  0  0
  4  5  2  0  0  0  0
  4  3  1  0  0  0  0
  5  1  1  0  0  0  0
  6  2  1  0  0  0  0
  7 10  2  0  0  0  0
  7  9  1  0  0  0  0
  8 12  1  0  0  0  0
  9 13  2  0  0  0  0
 10 16  1  0  0  0  0
 11  8  2  0  0  0  0
 12  6  1  0  0  0  0
 13 17  1  0  0  0  0
 14  1  1  0  0  0  0
 15  8  1  0  0  0  0
 16 22  1  0  0  0  0
 17 16  2  0  0  0  0
 18  5  1  0  0  0  0
 19  9  1  0  0  0  0
 20 18  1  0  0  0  0
 21  7  1  0  0  0  0
 22 20  1  0  0  0  0
 23 19  1  0  0  0  0
 24 14  1  0  0  0  0
M  END
>  <ID>
9146542

>  <Supplier>
ChemBridge

>  <clogP>
1.581000000000000e+000

>  <RB>
7

>  <tPSA>
8.303000000000000e+001

>  <Hacc>
4

>  <Hdon>
1

>  <LogSw>
-3.091000000000000e+000

>  <Group>
2

$$$$
9146543
 OpenBabel03312015312D

 29 31  0  0  0  0  0  0  0  0999 V2000
    6.7000    0.5708    0.0000 S   0  0  0  0  0  0  0  0  0  0  0  0
    1.4292   -0.1167    0.0000 C   0  0  0  0  0  0  0  0  0  0  0  0
    1.4292    0.6333    0.0000 C   0  0  0  0  0  0  0  0  0  0  0  0
    3.3042    1.1125    0.0000 C   0  0  0  0  0  0  0  0  0  0  0  0
    6.1250    0.0875    0.0000 N   0  0  0  0  0  0  0  0  0  0  0  0
    2.7292    0.6333    0.0000 N   0  0  0  0  0  0  0  0  0  0  0  0
    0.7792   -0.4917    0.0000 N   0  0  0  0  0  0  0  0  0  0  0  0
    2.0792    1.0083    0.0000 C   0  0  0  0  0  0  0  0  0  0  0  0
    7.3125    0.1375    0.0000 O   0  0  0  0  0  0  0  0  0  0  0  0
    7.1792    1.1458    0.0000 O   0  0  0  0  0  0  0  0  0  0  0  0
    4.0125    0.8583    0.0000 C   0  0  0  0  0  0  0  0  0  0  0  0
    5.4167    0.3458    0.0000 C   0  0  0  0  0  0  0  0  0  0  0  0
    1.8875   -0.3792    0.0000 O   0  0  0  0  0  0  0  0  0  0  0  0
    3.1750    1.8500    0.0000 O   0  0  0  0  0  0  0  0  0  0  0  0
    4.5875    1.3375    0.0000 C   0  0  0  0  0  0  0  0  0  0  0  0
    4.1417    0.1208    0.0000 C   0  0  0  0  0  0  0  0  0  0  0  0
    4.8417   -0.1375    0.0000 C   0  0  0  0  0  0  0  0  0  0  0  0
    5.2917    1.0833    0.0000 C   0  0  0  0  0  0  0  0  0  0  0  0
    6.1667    1.1000    0.0000 C   0  0  0  0  0  0  0  0  0  0  0  0
    0.7792    1.0083    0.0000 C   0  0  0  0  0  0  0  0  0  0  0  0
    0.7042   -1.2417    0.0000 C   0  0  0  0  0  0  0  0  0  0  0  0
    0.0917   -0.1875    0.0000 C   0  0  0  0  0  0  0  0  0  0  0  0
    6.2542   -0.6500    0.0000 C   0  0  0  0  0  0  0  0  0  0  0  0
    2.0792    1.7583    0.0000 C   0  0  0  0  0  0  0  0  0  0  0  0
    5.6792   -1.1292    0.0000 C   0  0  0  0  0  0  0  0  0  0  0  0
    0.7792    1.7583    0.0000 C   0  0  0  0  0  0  0  0  0  0  0  0
   -0.4083   -0.7417    0.0000 C   0  0  0  0  0  0  0  0  0  0  0  0
   -0.0333   -1.3917    0.0000 C   0  0  0  0  0  0  0  0  0  0  0  0
    1.4292    2.1333    0.0000 C   0  0  0  0  0  0  0  0  0  0  0  0
  2  3  1  0  0  0  0
  3  8  1  0  0  0  0
  4 11  1  0  0  0  0
  5  1  1  0  0  0  0
  6  4  1  0  0  0  0
  7  2  1  0  0  0  0
  8  6  1  0  0  0  0
  9  1  2  0  0  0  0
 10  1  2  0  0  0  0
 11 15  2  0  0  0  0
 11 16  1  0  0  0  0
 12  5  1  0  0  0  0
 13  2  2  0  0  0  0
 14  4  2  0  0  0  0
 15 18  1  0  0  0  0
 16 17  2  0  0  0  0
 17 12  1  0  0  0  0
 18 12  2  0  0  0  0
 19  1  1  0  0  0  0
 20  3  2  0  0  0  0
 20 26  1  0  0  0  0
 21  7  1  0  0  0  0
 22  7  1  0  0  0  0
 23  5  1  0  0  0  0
 24  8  2  0  0  0  0
 25 23  1  0  0  0  0
 26 29  2  0  0  0  0
 27 22  1  0  0  0  0
 28 21  1  0  0  0  0
 28 27  1  0  0  0  0
 29 24  1  0  0  0  0
M  END
>  <ID>
9146543

>  <Supplier>
ChemBridge

>  <clogP>
1.817000000000000e+000

>  <RB>
4

>  <tPSA>
8.679000000000002e+001

>  <Hacc>
4

>  <Hdon>
1

>  <LogSw>
-3.781000000000000e+000

>  <Group>
2

>  <Core>
141

$$$$
7640664
 OpenBabel03312015312D

 30 32  0  0  0  0  0  0  0  0999 V2000
    2.5625   -0.6125    0.0000 S   0  0  0  0  0  0  0  0  0  0  0  0
    6.0125   -8.5500    0.0000 C   0  0  0  0  0  0  0  0  0  0  0  0
    4.5625   -0.6125    0.0000 N   0  0  0  0  0  0  0  0  0  0  0  0
    2.5625   -2.6000    0.0000 C   0  0  0  0  0  0  0  0  0  0  0  0
    6.0125   -6.5625    0.0000 N   0  0  0  0  0  0  0  0  0  0  0  0
    8.2750  -11.4500    0.0000 O   0  0  0  0  0  0  0  0  0  0  0  0
   10.2000  -11.9500    0.0000 C   0  0  0  0  0  0  0  0  0  0  0  0
   10.7375  -13.8625    0.0000 C   0  0  0  0  0  0  0  0  0  0  0  0
    2.5500    1.3875    0.0000 O   0  0  0  0  0  0  0  0  0  0  0  0
    0.5625   -0.6000    0.0000 O   0  0  0  0  0  0  0  0  0  0  0  0
    4.2750   -3.5875    0.0000 C   0  0  0  0  0  0  0  0  0  0  0  0
    7.7500   -9.5250    0.0000 C   0  0  3  0  0  0  0  0  0  0  0  0
   12.6625  -14.3625    0.0000 C   0  0  0  0  0  0  0  0  0  0  0  0
    4.2875   -5.5750    0.0000 C   0  0  0  0  0  0  0  0  0  0  0  0
    4.0125   -8.5625    0.0000 O   0  0  0  0  0  0  0  0  0  0  0  0
   11.6125  -10.5125    0.0000 C   0  0  0  0  0  0  0  0  0  0  0  0
   14.0625  -12.9500    0.0000 C   0  0  0  0  0  0  0  0  0  0  0  0
    5.9625    0.8250    0.0000 C   0  0  0  0  0  0  0  0  0  0  0  0
    9.3250  -15.2875    0.0000 Cl  0  0  0  0  0  0  0  0  0  0  0  0
   13.5500  -11.0250    0.0000 C   0  0  0  0  0  0  0  0  0  0  0  0
   16.0000  -13.4750    0.0000 Cl  0  0  0  0  0  0  0  0  0  0  0  0
    0.8250   -3.5875    0.0000 C   0  0  0  0  0  0  0  0  0  0  0  0
    0.8250   -5.5750    0.0000 C   0  0  0  0  0  0  0  0  0  0  0  0
    2.5500   -6.5750    0.0000 C   0  0  0  0  0  0  0  0  0  0  0  0
    9.3250   -8.3000    0.0000 C   0  0  0  0  0  0  0  0  0  0  0  0
    5.4375    2.7375    0.0000 C   0  0  0  0  0  0  0  0  0  0  0  0
    7.9125    0.3125    0.0000 C   0  0  0  0  0  0  0  0  0  0  0  0
    9.3125    1.7375    0.0000 C   0  0  0  0  0  0  0  0  0  0  0  0
    6.8250    4.1500    0.0000 C   0  0  0  0  0  0  0  0  0  0  0  0
    8.7875    3.6750    0.0000 C   0  0  0  0  0  0  0  0  0  0  0  0
  2  5  1  0  0  0  0
  3  1  1  0  0  0  0
  4  1  1  0  0  0  0
  5 14  1  0  0  0  0
  6 12  1  0  0  0  0
  7  6  1  0  0  0  0
  8  7  2  0  0  0  0
  9  1  2  0  0  0  0
 10  1  2  0  0  0  0
 11  4  1  0  0  0  0
 12  2  1  0  0  0  0
 13  8  1  0  0  0  0
 14 11  2  0  0  0  0
 14 24  1  0  0  0  0
 15  2  2  0  0  0  0
 16  7  1  0  0  0  0
 17 20  1  0  0  0  0
 17 13  2  0  0  0  0
 18  3  1  0  0  0  0
 19  8  1  0  0  0  0
 20 16  2  0  0  0  0
 21 17  1  0  0  0  0
 22  4  2  0  0  0  0
 23 22  1  0  0  0  0
 24 23  2  0  0  0  0
 25 12  1  0  0  0  0
 26 18  1  0  0  0  0
 27 18  2  0  0  0  0
 28 27  1  0  0  0  0
 29 26  2  0  0  0  0
 30 28  2  0  0  0  0
 30 29  1  0  0  0  0
M  END
>  <ID>
7640664

>  <Supplier>
ChemBridge

>  <clogP>
5.131000000000000e+000

>  <RB>
6

>  <tPSA>
8.450000000000003e+001

>  <Hacc>
4

>  <Hdon>
2

>  <LogSw>
-7.608000000000000e+000

>  <Group>
1

>  <Core>
236

$$$$
7807592
 OpenBabel03312015312D

 34 36  0  0  0  0  0  0  0  0999 V2000
    3.1250   -2.8167    0.0000 C   0  0  0  0  0  0  0  0  0  0  0  0
    4.5917   -0.7500    0.0000 C   0  0  0  0  0  0  0  0  0  0  0  0
  -14.7625    1.5458    0.0000 N   0  3  0  0  0  0  0  0  0  0  0  0
    0.5542   -2.8417    0.0000 N   0  0  0  0  0  0  0  0  0  0  0  0
    4.6167   -4.8625    0.0000 S   0  0  0  0  0  0  0  0  0  0  0  0
    7.0417   -4.0417    0.0000 C   0  0  0  0  0  0  0  0  0  0  0  0
  -12.2042    1.5458    0.0000 C   0  0  0  0  0  0  0  0  0  0  0  0
    7.0292   -1.5417    0.0000 C   0  0  0  0  0  0  0  0  0  0  0  0
   -0.7333   -0.6542    0.0000 C   0  0  0  0  0  0  0  0  0  0  0  0
    4.8000    1.8000    0.0000 C   0  0  0  0  0  0  0  0  0  0  0  0
  -10.9667   -0.6542    0.0000 C   0  0  0  0  0  0  0  0  0  0  0  0
   -7.0625   -2.9000    0.0000 C   0  0  0  0  0  0  0  0  0  0  0  0
   -8.3792   -0.6542    0.0000 C   0  0  0  0  0  0  0  0  0  0  0  0
   -4.5208   -2.8625    0.0000 N   0  0  0  0  0  0  0  0  0  0  0  0
   -3.2750   -0.6542    0.0000 N   0  0  0  0  0  0  0  0  0  0  0  0
  -16.0000    3.7500    0.0000 O   0  5  0  0  0  0  0  0  0  0  0  0
  -16.0000   -0.6542    0.0000 O   0  0  0  0  0  0  0  0  0  0  0  0
    0.5542    1.5375    0.0000 S   0  0  0  0  0  0  0  0  0  0  0  0
  -10.9667    3.7125    0.0000 C   0  0  0  0  0  0  0  0  0  0  0  0
    2.7250    3.2708    0.0000 O   0  0  0  0  0  0  0  0  0  0  0  0
   -8.3375   -5.0667    0.0000 O   0  0  0  0  0  0  0  0  0  0  0  0
   -7.1417    1.5458    0.0000 C   0  0  0  0  0  0  0  0  0  0  0  0
    9.1167   -5.5250    0.0000 C   0  0  0  0  0  0  0  0  0  0  0  0
   -8.4167    3.7125    0.0000 C   0  0  0  0  0  0  0  0  0  0  0  0
    7.1042    2.9083    0.0000 O   0  0  0  0  0  0  0  0  0  0  0  0
   11.4167   -4.4417    0.0000 C   0  0  0  0  0  0  0  0  0  0  0  0
  -12.2417    5.9042    0.0000 C   0  0  0  0  0  0  0  0  0  0  0  0
    9.1917    1.4375    0.0000 C   0  0  0  0  0  0  0  0  0  0  0  0
   13.4792   -5.9125    0.0000 C   0  0  0  0  0  0  0  0  0  0  0  0
   11.6167   -1.9375    0.0000 C   0  0  0  0  0  0  0  0  0  0  0  0
   11.4875    2.5083    0.0000 C   0  0  0  0  0  0  0  0  0  0  0  0
   15.7750   -4.8417    0.0000 C   0  0  0  0  0  0  0  0  0  0  0  0
   13.9042   -0.8667    0.0000 C   0  0  0  0  0  0  0  0  0  0  0  0
   16.0000   -2.3167    0.0000 C   0  0  0  0  0  0  0  0  0  0  0  0
  2  1  2  0  0  0  0
  3  7  1  0  0  0  0
  4  1  1  0  0  0  0
  5  1  1  0  0  0  0
  6  5  1  0  0  0  0
  7 11  1  0  0  0  0
  7 19  2  0  0  0  0
  8  2  1  0  0  0  0
  8  6  2  0  0  0  0
  9  4  1  0  0  0  0
 10  2  1  0  0  0  0
 11 13  2  0  0  0  0
 12 14  1  0  0  0  0
 13 12  1  0  0  0  0
 14 15  1  0  0  0  0
 15  9  1  0  0  0  0
 16  3  1  0  0  0  0
 17  3  2  0  0  0  0
 18  9  2  0  0  0  0
 19 24  1  0  0  0  0
 20 10  2  0  0  0  0
 21 12  2  0  0  0  0
 22 13  1  0  0  0  0
 23  6  1  0  0  0  0
 24 22  2  0  0  0  0
 25 10  1  0  0  0  0
 26 23  1  0  0  0  0
 27 19  1  0  0  0  0
 28 25  1  0  0  0  0
 29 26  2  0  0  0  0
 30 26  1  0  0  0  0
 31 28  1  0  0  0  0
 32 29  1  0  0  0  0
 33 30  2  0  0  0  0
 34 33  1  0  0  0  0
 34 32  2  0  0  0  0
M  CHG  2   3   1  16  -1
M  END
>  <ID>
7807592

>  <Supplier>
ChemBridge

>  <clogP>
4.100000000000000e+000

>  <RB>
6

>  <tPSA>
1.226000000000000e+002

>  <Hacc>
5

>  <Hdon>
3

>  <LogSw>
-6.725000000000000e+000

>  <Group>
1

>  <Core>
098

$$$$
5995648
 OpenBabel03312015312D

 20 22  0  0  0  0  0  0  0  0999 V2000
   -0.5958   -4.3792    0.0000 C   0  0  0  0  0  0  0  0  0  0  0  0
    0.1000   -3.9542    0.0000 N   0  0  0  0  0  0  0  0  0  0  0  0
    1.5042   -3.1000    0.0000 N   0  0  0  0  0  0  0  0  0  0  0  0
   -0.5833   -5.0542    0.0000 C   0  0  0  0  0  0  0  0  0  0  0  0
   -1.3208   -5.3500    0.0000 O   0  0  0  0  0  0  0  0  0  0  0  0
    2.2292   -2.7000    0.0000 C   0  0  3  0  0  0  0  0  0  0  0  0
    0.0667   -3.1500    0.0000 C   0  0  0  0  0  0  0  0  0  0  0  0
    0.8500   -4.3500    0.0000 C   0  0  0  0  0  0  0  0  0  0  0  0
    1.5500   -3.9167    0.0000 C   0  0  0  0  0  0  0  0  0  0  0  0
    0.7792   -2.7000    0.0000 C   0  0  0  0  0  0  0  0  0  0  0  0
   -1.4958   -3.8500    0.0000 O   0  0  0  0  0  0  0  0  0  0  0  0
   -0.0708   -5.6542    0.0000 C   0  0  0  0  0  0  0  0  0  0  0  0
   -1.2208   -6.1542    0.0000 C   0  0  0  0  0  0  0  0  0  0  0  0
   -0.4708   -6.3500    0.0000 C   0  0  0  0  0  0  0  0  0  0  0  0
    3.1792   -3.2292    0.0000 C   0  0  0  0  0  0  0  0  0  0  0  0
    2.2292   -1.5542    0.0000 C   0  0  0  0  0  0  0  0  0  0  0  0
    3.1792   -1.0000    0.0000 C   0  0  0  0  0  0  0  0  0  0  0  0
    4.1292   -2.7000    0.0000 C   0  0  0  0  0  0  0  0  0  0  0  0
    4.1292   -1.5542    0.0000 C   0  0  3  0  0  0  0  0  0  0  0  0
    5.1000   -1.0000    0.0000 C   0  0  0  0  0  0  0  0  0  0  0  0
  2  1  1  0  0  0  0
  3  9  1  0  0  0  0
  4  1  1  0  0  0  0
  5  4  1  0  0  0  0
  6  3  1  0  0  0  0
  7  2  1  0  0  0  0
  8  2  1  0  0  0  0
  9  8  1  0  0  0  0
 10  7  1  0  0  0  0
 10  3  1  0  0  0  0
 11  1  2  0  0  0  0
 12  4  2  0  0  0  0
 13  5  1  0  0  0  0
 14 12  1  0  0  0  0
 14 13  2  0  0  0  0
 15  6  1  0  0  0  0
 16  6  1  0  0  0  0
 17 16  1  0  0  0  0
 18 15  1  0  0  0  0
 19 17  1  0  0  0  0
 19 18  1  0  0  0  0
 20 19  1  0  0  0  0
M  END
>  <ID>
5995648

>  <Supplier>
ChemBridge

>  <clogP>
2.980000000000000e+000

>  <RB>
2

>  <tPSA>
3.669000000000000e+001

>  <Hacc>
3

>  <Hdon>
0

>  <LogSw>
-3.761000000000000e+000

>  <Group>
3

>  <Core>
165

$$$$
7498524
 OpenBabel03312015312D

 28 30  0  0  0  0  0  0  0  0999 V2000
    0.6792    0.5333    0.0000 N   0  0  0  0  0  0  0  0  0  0  0  0
    0.0417    1.0583    0.0000 C   0  0  0  0  0  0  0  0  0  0  0  0
    0.3542    1.8208    0.0000 N   0  0  0  0  0  0  0  0  0  0  0  0
    1.3667    0.9708    0.0000 C   0  0  0  0  0  0  0  0  0  0  0  0
    1.1792    1.7625    0.0000 N   0  0  0  0  0  0  0  0  0  0  0  0
    5.8292    4.2000    0.0000 N   0  3  0  0  0  0  0  0  0  0  0  0
    2.1417    0.6583    0.0000 S   0  0  0  0  0  0  0  0  0  0  0  0
   -0.7250    0.7750    0.0000 C   0  0  0  0  0  0  0  0  0  0  0  0
    5.4167    3.4958    0.0000 C   0  0  0  0  0  0  0  0  0  0  0  0
    3.3750    1.3625    0.0000 C   0  0  0  0  0  0  0  0  0  0  0  0
    6.6417    4.2042    0.0000 O   0  5  0  0  0  0  0  0  0  0  0  0
    5.4125    4.9042    0.0000 O   0  0  0  0  0  0  0  0  0  0  0  0
    4.1917    1.3625    0.0000 N   0  0  0  0  0  0  0  0  0  0  0  0
    2.9625    2.0708    0.0000 O   0  0  0  0  0  0  0  0  0  0  0  0
    0.6292   -0.2917    0.0000 C   0  0  0  0  0  0  0  0  0  0  0  0
    2.9667    0.6583    0.0000 C   0  0  0  0  0  0  0  0  0  0  0  0
    4.6000    3.4958    0.0000 C   0  0  0  0  0  0  0  0  0  0  0  0
    5.8250    2.7833    0.0000 C   0  0  0  0  0  0  0  0  0  0  0  0
   -1.3583    1.3000    0.0000 C   0  0  0  0  0  0  0  0  0  0  0  0
   -0.8708   -0.0292    0.0000 C   0  0  0  0  0  0  0  0  0  0  0  0
    4.5917    2.0833    0.0000 C   0  0  0  0  0  0  0  0  0  0  0  0
   -2.2708    0.2083    0.0000 C   0  0  0  0  0  0  0  0  0  0  0  0
   -3.0583   -0.0750    0.0000 N   0  0  0  0  0  0  0  0  0  0  0  0
    5.4167    2.0833    0.0000 C   0  0  0  0  0  0  0  0  0  0  0  0
    4.1875    2.7833    0.0000 C   0  0  0  0  0  0  0  0  0  0  0  0
   -1.6375   -0.3167    0.0000 C   0  0  0  0  0  0  0  0  0  0  0  0
   -2.1250    1.0208    0.0000 C   0  0  0  0  0  0  0  0  0  0  0  0
    0.0417   -0.8792    0.0000 C   0  0  0  0  0  0  0  0  0  0  0  0
  2  1  1  0  0  0  0
  3  2  2  0  0  0  0
  3  5  1  0  0  0  0
  4  1  1  0  0  0  0
  5  4  2  0  0  0  0
  6  9  1  0  0  0  0
  7  4  1  0  0  0  0
  8  2  1  0  0  0  0
  9 17  1  0  0  0  0
  9 18  2  0  0  0  0
 10 16  1  0  0  0  0
 11  6  1  0  0  0  0
 12  6  2  0  0  0  0
 13 10  1  0  0  0  0
 14 10  2  0  0  0  0
 15  1  1  0  0  0  0
 16  7  1  0  0  0  0
 17 25  2  0  0  0  0
 18 24  1  0  0  0  0
 19  8  2  0  0  0  0
 20  8  1  0  0  0  0
 21 13  1  0  0  0  0
 22 26  1  0  0  0  0
 22 27  2  0  0  0  0
 23 22  1  0  0  0  0
 24 21  2  0  0  0  0
 25 21  1  0  0  0  0
 26 20  2  0  0  0  0
 27 19  1  0  0  0  0
 28 15  1  0  0  0  0
M  CHG  2   6   1  11  -1
M  END
>  <ID>
7498524

>  <Supplier>
ChemBridge

>  <clogP>
2.102000000000000e+000

>  <RB>
5

>  <tPSA>
1.289700000000000e+002

>  <Hacc>
6

>  <Hdon>
2

>  <LogSw>
-5.116000000000000e+000

>  <Group>
2

>  <Core>
009

$$$$
7215779
 OpenBabel03312015312D

 25 27  0  0  0  0  0  0  0  0999 V2000
    9.1750   -2.9792    0.0000 C   0  0  0  0  0  0  0  0  0  0  0  0
    8.4875   -2.5917    0.0000 C   0  0  0  0  0  0  0  0  0  0  0  0
    9.1792   -3.7625    0.0000 N   0  0  0  0  0  0  0  0  0  0  0  0
    7.8042   -2.9917    0.0000 C   0  0  0  0  0  0  0  0  0  0  0  0
    7.8125   -3.7792    0.0000 N   0  0  0  0  0  0  0  0  0  0  0  0
    7.1000   -4.1917    0.0000 C   0  0  0  0  0  0  0  0  0  0  0  0
    6.3792   -3.7792    0.0000 C   0  0  0  0  0  0  0  0  0  0  0  0
    5.6750   -4.1875    0.0000 C   0  0  0  0  0  0  0  0  0  0  0  0
    9.8542   -2.5792    0.0000 O   0  0  0  0  0  0  0  0  0  0  0  0
    7.1000   -5.0167    0.0000 O   0  0  0  0  0  0  0  0  0  0  0  0
    4.9625   -3.7792    0.0000 C   0  0  0  0  0  0  0  0  0  0  0  0
    3.5375   -2.9667    0.0000 C   0  0  0  0  0  0  0  0  0  0  0  0
    8.4792   -1.8042    0.0000 C   0  0  0  0  0  0  0  0  0  0  0  0
    2.8167   -2.5542    0.0000 F   0  0  0  0  0  0  0  0  0  0  0  0
    4.9625   -2.9542    0.0000 C   0  0  0  0  0  0  0  0  0  0  0  0
    4.2542   -4.1917    0.0000 C   0  0  0  0  0  0  0  0  0  0  0  0
    3.5417   -3.7917    0.0000 C   0  0  0  0  0  0  0  0  0  0  0  0
    4.2500   -2.5500    0.0000 C   0  0  0  0  0  0  0  0  0  0  0  0
    8.5417   -4.2292    0.0000 C   0  0  0  0  0  0  0  0  0  0  0  0
    9.8167   -4.2167    0.0000 C   0  0  0  0  0  0  0  0  0  0  0  0
    7.1167   -2.6042    0.0000 C   0  0  0  0  0  0  0  0  0  0  0  0
    7.8000   -1.4167    0.0000 C   0  0  0  0  0  0  0  0  0  0  0  0
    9.5792   -4.9667    0.0000 C   0  0  0  0  0  0  0  0  0  0  0  0
    8.7917   -4.9750    0.0000 C   0  0  0  0  0  0  0  0  0  0  0  0
    7.1167   -1.8167    0.0000 C   0  0  0  0  0  0  0  0  0  0  0  0
  2  1  1  0  0  0  0
  3  1  1  0  0  0  0
  4  2  1  0  0  0  0
  5  4  1  0  0  0  0
  6  5  1  0  0  0  0
  7  6  1  0  0  0  0
  8  7  2  0  0  0  0
  9  1  2  0  0  0  0
 10  6  2  0  0  0  0
 11  8  1  0  0  0  0
 12 17  1  0  0  0  0
 13  2  2  0  0  0  0
 14 12  1  0  0  0  0
 15 11  2  0  0  0  0
 16 11  1  0  0  0  0
 17 16  2  0  0  0  0
 18 15  1  0  0  0  0
 18 12  2  0  0  0  0
 19  3  1  0  0  0  0
 20  3  1  0  0  0  0
 21  4  2  0  0  0  0
 22 13  1  0  0  0  0
 23 20  1  0  0  0  0
 24 19  1  0  0  0  0
 24 23  1  0  0  0  0
 25 22  2  0  0  0  0
 25 21  1  0  0  0  0
M  END
>  <ID>
7215779

>  <Supplier>
ChemBridge

>  <clogP>
3.370000000000000e+000

>  <RB>
4

>  <tPSA>
4.941000000000002e+001

>  <Hacc>
2

>  <Hdon>
1

>  <LogSw>
-4.545000000000000e+000

>  <Group>
2

>  <Core>
141

$$$$
6026145
 OpenBabel03312015312D

 27 30  0  0  0  0  0  0  0  0999 V2000
    0.2417   -1.7125    0.0000 C   0  0  0  0  0  0  0  0  0  0  0  0
   -0.1625   -2.3167    0.0000 N   0  0  0  0  0  0  0  0  0  0  0  0
    0.9917   -1.7125    0.0000 C   0  0  0  0  0  0  0  0  0  0  0  0
   -0.2083   -1.1042    0.0000 O   0  0  0  0  0  0  0  0  0  0  0  0
    1.3667   -2.3625    0.0000 C   0  0  0  0  0  0  0  0  0  0  0  0
   -0.9208   -2.0917    0.0000 C   0  0  0  0  0  0  0  0  0  0  0  0
   -0.9208   -1.3375    0.0000 C   0  0  0  0  0  0  0  0  0  0  0  0
    3.6167   -2.3625    0.0000 C   0  0  0  0  0  0  0  0  0  0  0  0
    2.1167   -2.3625    0.0000 C   0  0  0  0  0  0  0  0  0  0  0  0
    1.3667   -1.0625    0.0000 C   0  0  0  0  0  0  0  0  0  0  0  0
    4.3667   -2.3625    0.0000 C   0  0  0  0  0  0  0  0  0  0  0  0
    3.2417   -1.7125    0.0000 N   0  0  0  0  0  0  0  0  0  0  0  0
    4.8042   -1.7542    0.0000 C   0  0  0  0  0  0  0  0  0  0  0  0
    2.4917   -1.7125    0.0000 C   0  0  0  0  0  0  0  0  0  0  0  0
    3.2417   -3.0125    0.0000 O   0  0  0  0  0  0  0  0  0  0  0  0
    2.1167   -1.0625    0.0000 C   0  0  0  0  0  0  0  0  0  0  0  0
    0.9917   -3.0125    0.0000 O   0  0  0  0  0  0  0  0  0  0  0  0
    5.5542   -1.8292    0.0000 C   0  0  0  0  0  0  0  0  0  0  0  0
   -1.5750   -2.4667    0.0000 C   0  0  0  0  0  0  0  0  0  0  0  0
   -1.5750   -0.9542    0.0000 C   0  0  0  0  0  0  0  0  0  0  0  0
    5.8542   -2.5167    0.0000 C   0  0  0  0  0  0  0  0  0  0  0  0
    5.9917   -1.2292    0.0000 C   0  0  0  0  0  0  0  0  0  0  0  0
   -2.2208   -1.3375    0.0000 C   0  0  0  0  0  0  0  0  0  0  0  0
   -2.2208   -2.0917    0.0000 C   0  0  0  0  0  0  0  0  0  0  0  0
    6.7375   -1.3042    0.0000 C   0  0  0  0  0  0  0  0  0  0  0  0
    6.6042   -2.6000    0.0000 C   0  0  0  0  0  0  0  0  0  0  0  0
    7.0417   -1.9917    0.0000 C   0  0  0  0  0  0  0  0  0  0  0  0
  2  1  2  0  0  0  0
  3  1  1  0  0  0  0
  4  1  1  0  0  0  0
  5  3  1  0  0  0  0
  6  2  1  0  0  0  0
  7  4  1  0  0  0  0
  7  6  2  0  0  0  0
  8 12  1  0  0  0  0
  9  5  2  0  0  0  0
  9 14  1  0  0  0  0
 10  3  2  0  0  0  0
 11  8  1  0  0  0  0
 12 14  1  0  0  0  0
 13 11  2  0  0  0  0
 14 16  2  0  0  0  0
 15  8  2  0  0  0  0
 16 10  1  0  0  0  0
 17  5  1  0  0  0  0
 18 13  1  0  0  0  0
 19  6  1  0  0  0  0
 20  7  1  0  0  0  0
 21 18  1  0  0  0  0
 22 18  2  0  0  0  0
 23 20  2  0  0  0  0
 23 24  1  0  0  0  0
 24 19  2  0  0  0  0
 25 22  1  0  0  0  0
 26 21  2  0  0  0  0
 26 27  1  0  0  0  0
 27 25  2  0  0  0  0
M  END
>  <ID>
6026145

>  <Supplier>
ChemBridge

>  <clogP>
4.450000000000000e+000

>  <RB>
4

>  <tPSA>
7.536000000000000e+001

>  <Hacc>
4

>  <Hdon>
2

>  <LogSw>
-5.599000000000000e+000

>  <Group>
2

>  <Core>
068

$$$$
5633664
 OpenBabel03312015312D

 26 27  0  0  0  0  0  0  0  0999 V2000
   -2.0333   -1.3042    0.0000 C   0  0  0  0  0  0  0  0  0  0  0  0
    1.1875    0.5333    0.0000 C   0  0  0  0  0  0  0  0  0  0  0  0
   -2.0125   -0.5875    0.0000 C   0  0  0  0  0  0  0  0  0  0  0  0
    1.8292    0.9125    0.0000 C   0  0  0  0  0  0  0  0  0  0  0  0
   -2.6708   -1.6875    0.0000 C   0  0  0  0  0  0  0  0  0  0  0  0
   -1.3958   -1.6667    0.0000 C   0  0  0  0  0  0  0  0  0  0  0  0
    0.5667    0.8958    0.0000 N   0  0  0  0  0  0  0  0  0  0  0  0
   -0.7500   -2.0500    0.0000 N   0  0  0  0  0  0  0  0  0  0  0  0
   -1.3708   -0.2042    0.0000 C   0  0  0  0  0  0  0  0  0  0  0  0
    2.4667    0.5708    0.0000 C   0  0  0  0  0  0  0  0  0  0  0  0
    1.1875   -0.2042    0.0000 O   0  0  0  0  0  0  0  0  0  0  0  0
   -3.2958   -1.3292    0.0000 O   0  0  0  0  0  0  0  0  0  0  0  0
   -1.3708    0.5333    0.0000 C   0  0  0  0  0  0  0  0  0  0  0  0
   -0.7125   -0.5667    0.0000 C   0  0  0  0  0  0  0  0  0  0  0  0
   -0.0958    0.5333    0.0000 C   0  0  0  0  0  0  0  0  0  0  0  0
   -2.6500   -0.2292    0.0000 O   0  0  0  0  0  0  0  0  0  0  0  0
   -2.6708   -2.4042    0.0000 O   0  0  0  0  0  0  0  0  0  0  0  0
    2.4667   -0.1667    0.0000 Cl  0  0  0  0  0  0  0  0  0  0  0  0
   -0.7333    0.8958    0.0000 C   0  0  0  0  0  0  0  0  0  0  0  0
   -0.0958   -0.2042    0.0000 C   0  0  0  0  0  0  0  0  0  0  0  0
    1.8292    1.6500    0.0000 C   0  0  0  0  0  0  0  0  0  0  0  0
    3.1042    0.9333    0.0000 C   0  0  0  0  0  0  0  0  0  0  0  0
   -2.0333   -2.7667    0.0000 C   0  0  0  0  0  0  0  0  0  0  0  0
    2.4667    2.0208    0.0000 C   0  0  0  0  0  0  0  0  0  0  0  0
   -2.0333   -3.5042    0.0000 C   0  0  0  0  0  0  0  0  0  0  0  0
    3.1042    1.6500    0.0000 C   0  0  0  0  0  0  0  0  0  0  0  0
  2  7  1  0  0  0  0
  3  1  2  0  0  0  0
  4  2  1  0  0  0  0
  5  1  1  0  0  0  0
  6  1  1  0  0  0  0
  7 15  1  0  0  0  0
  8  6  3  0  0  0  0
  9  3  1  0  0  0  0
 10  4  1  0  0  0  0
 11  2  2  0  0  0  0
 12  5  2  0  0  0  0
 13  9  1  0  0  0  0
 14  9  2  0  0  0  0
 15 20  2  0  0  0  0
 16  3  1  0  0  0  0
 17  5  1  0  0  0  0
 18 10  1  0  0  0  0
 19 13  2  0  0  0  0
 19 15  1  0  0  0  0
 20 14  1  0  0  0  0
 21  4  2  0  0  0  0
 22 10  2  0  0  0  0
 22 26  1  0  0  0  0
 23 17  1  0  0  0  0
 24 21  1  0  0  0  0
 25 23  1  0  0  0  0
 26 24  2  0  0  0  0
M  END
>  <ID>
5633664

>  <Supplier>
ChemBridge

>  <clogP>
2.550000000000000e+000

>  <RB>
4

>  <tPSA>
9.942000000000000e+001

>  <Hacc>
5

>  <Hdon>
2

>  <LogSw>
-4.346000000000000e+000

>  <Group>
1

>  <Core>
511

$$$$
6026147
 OpenBabel03312015312D

 26 29  0  0  0  0  0  0  0  0999 V2000
    0.6500   -0.6542    0.0000 C   0  0  0  0  0  0  0  0  0  0  0  0
    0.2875   -1.2542    0.0000 C   0  0  0  0  0  0  0  0  0  0  0  0
    1.4042   -1.5000    0.0000 C   0  0  0  0  0  0  0  0  0  0  0  0
    0.7667   -1.8000    0.0000 S   0  0  0  0  0  0  0  0  0  0  0  0
    1.3292   -0.8000    0.0000 O   0  0  0  0  0  0  0  0  0  0  0  0
    0.2875   -0.0292    0.0000 C   0  0  0  0  0  0  0  0  0  0  0  0
   -1.8333   -1.2792    0.0000 C   0  0  0  0  0  0  0  0  0  0  0  0
   -0.4333   -1.2542    0.0000 C   0  0  0  0  0  0  0  0  0  0  0  0
   -0.7708   -0.6542    0.0000 C   0  0  0  0  0  0  0  0  0  0  0  0
   -1.4958   -0.6542    0.0000 O   0  0  0  0  0  0  0  0  0  0  0  0
   -0.4125   -0.0167    0.0000 C   0  0  0  0  0  0  0  0  0  0  0  0
    0.6500    0.5833    0.0000 C   0  0  0  0  0  0  0  0  0  0  0  0
    2.0292   -1.8375    0.0000 O   0  0  0  0  0  0  0  0  0  0  0  0
   -1.4958   -1.9000    0.0000 O   0  0  0  0  0  0  0  0  0  0  0  0
   -2.5333   -1.2542    0.0000 C   0  0  0  0  0  0  0  0  0  0  0  0
    1.3500    0.5833    0.0000 C   0  0  0  0  0  0  0  0  0  0  0  0
    0.2875    1.2000    0.0000 C   0  0  0  0  0  0  0  0  0  0  0  0
    1.6875    1.1833    0.0000 C   0  0  0  0  0  0  0  0  0  0  0  0
    0.6500    1.8208    0.0000 C   0  0  0  0  0  0  0  0  0  0  0  0
    1.3500    1.8000    0.0000 C   0  0  0  0  0  0  0  0  0  0  0  0
   -2.8958   -1.8792    0.0000 C   0  0  0  0  0  0  0  0  0  0  0  0
   -2.8958   -0.6375    0.0000 C   0  0  0  0  0  0  0  0  0  0  0  0
    1.7042    2.4208    0.0000 C   0  0  0  0  0  0  0  0  0  0  0  0
   -3.5958   -1.8792    0.0000 C   0  0  0  0  0  0  0  0  0  0  0  0
   -3.5958   -0.6375    0.0000 C   0  0  0  0  0  0  0  0  0  0  0  0
   -3.9583   -1.2542    0.0000 C   0  0  0  0  0  0  0  0  0  0  0  0
  2  1  2  0  0  0  0
  3  5  1  0  0  0  0
  4  2  1  0  0  0  0
  4  3  1  0  0  0  0
  5  1  1  0  0  0  0
  6  1  1  0  0  0  0
  7 10  1  0  0  0  0
  8  2  1  0  0  0  0
  9 11  1  0  0  0  0
  9  8  2  0  0  0  0
 10  9  1  0  0  0  0
 11  6  2  0  0  0  0
 12  6  1  0  0  0  0
 13  3  2  0  0  0  0
 14  7  2  0  0  0  0
 15  7  1  0  0  0  0
 16 12  2  0  0  0  0
 17 12  1  0  0  0  0
 18 16  1  0  0  0  0
 19 17  2  0  0  0  0
 20 19  1  0  0  0  0
 20 18  2  0  0  0  0
 21 15  1  0  0  0  0
 22 15  2  0  0  0  0
 23 20  1  0  0  0  0
 24 21  2  0  0  0  0
 25 22  1  0  0  0  0
 26 25  2  0  0  0  0
 26 24  1  0  0  0  0
M  END
>  <ID>
6026147

>  <Supplier>
ChemBridge

>  <clogP>
5.790000000000000e+000

>  <RB>
4

>  <tPSA>
5.651000000000000e+001

>  <Hacc>
4

>  <Hdon>
0

>  <LogSw>
-6.787000000000000e+000

>  <Group>
2

>  <Core>
266

$$$$
5633662
 OpenBabel03312015312D

 26 28  0  0  0  0  0  0  0  0999 V2000
   -0.4458    0.0833    0.0000 N   0  0  0  0  0  0  0  0  0  0  0  0
   -0.7333   -0.6542    0.0000 C   0  0  0  0  0  0  0  0  0  0  0  0
   -1.0708    0.5708    0.0000 C   0  0  0  0  0  0  0  0  0  0  0  0
   -1.7333    0.1208    0.0000 C   0  0  0  0  0  0  0  0  0  0  0  0
   -1.5000   -0.6500    0.0000 S   0  0  0  0  0  0  0  0  0  0  0  0
    3.1000   -0.4500    0.0000 C   0  0  0  0  0  0  0  0  0  0  0  0
    3.5042   -0.9167    0.0000 N   0  0  0  0  0  0  0  0  0  0  0  0
    4.0500    0.3958    0.0000 C   0  0  0  0  0  0  0  0  0  0  0  0
    0.3542    0.3208    0.0000 C   0  0  0  0  0  0  0  0  0  0  0  0
   -2.5000    0.4833    0.0000 C   0  0  0  0  0  0  0  0  0  0  0  0
    2.3167   -0.6500    0.0000 N   0  0  0  0  0  0  0  0  0  0  0  0
    4.2542   -0.8042    0.0000 O   0  0  0  0  0  0  0  0  0  0  0  0
    1.7292   -0.0667    0.0000 C   0  0  0  0  0  0  0  0  0  0  0  0
    4.4542   -0.0875    0.0000 C   0  0  0  0  0  0  0  0  0  0  0  0
    0.9542   -0.2500    0.0000 C   0  0  0  0  0  0  0  0  0  0  0  0
   -0.2500   -1.3500    0.0000 S   0  0  0  0  0  0  0  0  0  0  0  0
   -1.0708    1.4208    0.0000 O   0  0  0  0  0  0  0  0  0  0  0  0
    1.9792    0.7458    0.0000 O   0  0  0  0  0  0  0  0  0  0  0  0
   -3.1833    0.0125    0.0000 C   0  0  0  0  0  0  0  0  0  0  0  0
   -4.5208   -0.9167    0.0000 C   0  0  0  0  0  0  0  0  0  0  0  0
   -5.1708   -1.4042    0.0000 Cl  0  0  0  0  0  0  0  0  0  0  0  0
   -3.9333    0.3500    0.0000 C   0  0  0  0  0  0  0  0  0  0  0  0
   -3.1000   -0.8000    0.0000 C   0  0  0  0  0  0  0  0  0  0  0  0
   -4.6000   -0.1042    0.0000 C   0  0  0  0  0  0  0  0  0  0  0  0
   -3.7958   -1.2500    0.0000 C   0  0  0  0  0  0  0  0  0  0  0  0
    5.2292    0.1708    0.0000 C   0  0  0  0  0  0  0  0  0  0  0  0
  2  1  1  0  0  0  0
  3  1  1  0  0  0  0
  4  3  1  0  0  0  0
  5  2  1  0  0  0  0
  5  4  1  0  0  0  0
  6 11  1  0  0  0  0
  7  6  2  0  0  0  0
  8  6  1  0  0  0  0
  9  1  1  0  0  0  0
 10  4  2  0  0  0  0
 11 13  1  0  0  0  0
 12  7  1  0  0  0  0
 12 14  1  0  0  0  0
 13 15  1  0  0  0  0
 14  8  2  0  0  0  0
 15  9  1  0  0  0  0
 16  2  2  0  0  0  0
 17  3  2  0  0  0  0
 18 13  2  0  0  0  0
 19 10  1  0  0  0  0
 20 25  2  0  0  0  0
 20 24  1  0  0  0  0
 21 20  1  0  0  0  0
 22 19  1  0  0  0  0
 23 19  2  0  0  0  0
 24 22  2  0  0  0  0
 25 23  1  0  0  0  0
 26 14  1  0  0  0  0
M  END
>  <ID>
5633662

>  <Supplier>
ChemBridge

>  <clogP>
2.880000000000000e+000

>  <RB>
5

>  <tPSA>
7.544000000000000e+001

>  <Hacc>
4

>  <Hdon>
1

>  <LogSw>
-4.633000000000000e+000

>  <Group>
1

>  <Core>
001

$$$$
7921722
 OpenBabel03312015312D

 31 34  0  0  0  0  0  0  0  0999 V2000
    5.8250    2.2875    0.0000 C   0  0  0  0  0  0  0  0  0  0  0  0
    6.2000    2.9375    0.0000 N   0  0  0  0  0  0  0  0  0  0  0  0
    4.7000    2.9375    0.0000 C   0  0  0  0  0  0  0  0  0  0  0  0
    3.9500    2.9375    0.0000 C   0  0  0  0  0  0  0  0  0  0  0  0
    5.0750    2.2875    0.0000 C   0  0  0  0  0  0  0  0  0  0  0  0
    6.2000    1.6375    0.0000 C   0  0  0  0  0  0  0  0  0  0  0  0
    5.8250    3.5875    0.0000 C   0  0  0  0  0  0  0  0  0  0  0  0
    5.0750    3.5875    0.0000 C   0  0  0  0  0  0  0  0  0  0  0  0
    3.5750    3.5875    0.0000 N   0  0  0  0  0  0  0  0  0  0  0  0
    2.8250    3.5875    0.0000 C   0  0  0  0  0  0  0  0  0  0  0  0
    4.7000    1.6375    0.0000 C   0  0  0  0  0  0  0  0  0  0  0  0
    5.8250    0.9875    0.0000 C   0  0  0  0  0  0  0  0  0  0  0  0
    6.2000    4.2292    0.0000 C   0  0  0  0  0  0  0  0  0  0  0  0
    2.4417    4.2292    0.0000 C   0  0  0  0  0  0  0  0  0  0  0  0
    2.4417    2.9375    0.0000 C   0  0  0  0  0  0  0  0  0  0  0  0
    3.5750    2.2875    0.0000 O   0  0  0  0  0  0  0  0  0  0  0  0
    6.9500    4.2292    0.0000 N   0  0  0  0  0  0  0  0  0  0  0  0
    1.7000    2.9375    0.0000 C   0  0  0  0  0  0  0  0  0  0  0  0
    1.7000    4.2292    0.0000 C   0  0  0  0  0  0  0  0  0  0  0  0
    1.3250    3.5875    0.0000 C   0  0  0  0  0  0  0  0  0  0  0  0
    5.0750    0.9875    0.0000 C   0  0  0  0  0  0  0  0  0  0  0  0
    6.2000    0.3375    0.0000 Cl  0  0  0  0  0  0  0  0  0  0  0  0
    6.9500    1.6375    0.0000 C   0  0  0  0  0  0  0  0  0  0  0  0
    1.3250    4.8792    0.0000 O   0  0  0  0  0  0  0  0  0  0  0  0
    1.3250    2.2875    0.0000 O   0  0  0  0  0  0  0  0  0  0  0  0
    7.3250    4.8792    0.0000 C   0  0  0  0  0  0  0  0  0  0  0  0
    5.8250    4.8792    0.0000 C   0  0  0  0  0  0  0  0  0  0  0  0
    0.5750    4.8792    0.0000 C   0  0  0  0  0  0  0  0  0  0  0  0
    0.5750    2.2875    0.0000 C   0  0  0  0  0  0  0  0  0  0  0  0
    6.9500    5.5292    0.0000 C   0  0  0  0  0  0  0  0  0  0  0  0
    6.2000    5.5292    0.0000 C   0  0  0  0  0  0  0  0  0  0  0  0
  2  1  2  0  0  0  0
  3  5  2  0  0  0  0
  4  3  1  0  0  0  0
  5  1  1  0  0  0  0
  6  1  1  0  0  0  0
  7  2  1  0  0  0  0
  7  8  2  0  0  0  0
  8  3  1  0  0  0  0
  9  4  1  0  0  0  0
 10  9  1  0  0  0  0
 11  5  1  0  0  0  0
 12  6  2  0  0  0  0
 13  7  1  0  0  0  0
 14 10  2  0  0  0  0
 15 10  1  0  0  0  0
 16  4  2  0  0  0  0
 17 13  1  0  0  0  0
 18 15  2  0  0  0  0
 19 14  1  0  0  0  0
 19 20  2  0  0  0  0
 20 18  1  0  0  0  0
 21 12  1  0  0  0  0
 21 11  2  0  0  0  0
 22 12  1  0  0  0  0
 23  6  1  0  0  0  0
 24 19  1  0  0  0  0
 25 18  1  0  0  0  0
 26 17  2  0  0  0  0
 26 30  1  0  0  0  0
 27 13  2  0  0  0  0
 28 24  1  0  0  0  0
 29 25  1  0  0  0  0
 30 31  2  0  0  0  0
 31 27  1  0  0  0  0
M  END
>  <ID>
7921722

>  <Supplier>
ChemBridge

>  <clogP>
5.340000000000000e+000

>  <RB>
3

>  <tPSA>
7.334000000000000e+001

>  <Hacc>
5

>  <Hdon>
1

>  <LogSw>
-6.923000000000000e+000

>  <Group>
1

>  <Core>
120

$$$$
5149629
 OpenBabel03312015312D

 21 23  0  0  0  0  0  0  0  0999 V2000
    0.3875    1.4125    0.0000 C   0  0  0  0  0  0  0  0  0  0  0  0
   -0.7208    0.7833    0.0000 N   0  0  0  0  0  0  0  0  0  0  0  0
    0.3875    2.6958    0.0000 N   0  0  0  0  0  0  0  0  0  0  0  0
   -1.8458    1.4125    0.0000 C   0  0  0  0  0  0  0  0  0  0  0  0
   -1.8458    2.6958    0.0000 C   0  0  0  0  0  0  0  0  0  0  0  0
   -2.9500    0.7833    0.0000 C   0  0  0  0  0  0  0  0  0  0  0  0
   -2.9500    3.3333    0.0000 C   0  0  0  0  0  0  0  0  0  0  0  0
   -4.0625    1.4125    0.0000 C   0  0  0  0  0  0  0  0  0  0  0  0
   -4.0625    2.6958    0.0000 C   0  0  0  0  0  0  0  0  0  0  0  0
    1.5667    0.7333    0.0000 S   0  0  0  0  0  0  0  0  0  0  0  0
    3.9042    0.7333    0.0000 C   0  0  0  0  0  0  0  0  0  0  0  0
    2.7375    1.4125    0.0000 C   0  0  0  0  0  0  0  0  0  0  0  0
    5.0875    1.4125    0.0000 O   0  0  0  0  0  0  0  0  0  0  0  0
    3.8875   -0.6292    0.0000 C   0  0  0  0  0  0  0  0  0  0  0  0
   -5.2708    3.3708    0.0000 C   0  0  0  0  0  0  0  0  0  0  0  0
   -5.2708    0.7500    0.0000 C   0  0  0  0  0  0  0  0  0  0  0  0
    5.0792   -1.3292    0.0000 C   0  0  0  0  0  0  0  0  0  0  0  0
    2.7000   -1.3000    0.0000 C   0  0  0  0  0  0  0  0  0  0  0  0
    2.7000   -2.6667    0.0000 C   0  0  0  0  0  0  0  0  0  0  0  0
    5.0542   -2.6875    0.0000 C   0  0  0  0  0  0  0  0  0  0  0  0
    3.8792   -3.3667    0.0000 C   0  0  0  0  0  0  0  0  0  0  0  0
  2  1  2  0  0  0  0
  3  1  1  0  0  0  0
  4  2  1  0  0  0  0
  5  3  1  0  0  0  0
  5  4  2  0  0  0  0
  6  4  1  0  0  0  0
  7  5  1  0  0  0  0
  8  6  2  0  0  0  0
  9  7  2  0  0  0  0
  9  8  1  0  0  0  0
 10  1  1  0  0  0  0
 11 12  1  0  0  0  0
 12 10  1  0  0  0  0
 13 11  2  0  0  0  0
 14 11  1  0  0  0  0
 15  9  1  0  0  0  0
 16  8  1  0  0  0  0
 17 14  2  0  0  0  0
 18 14  1  0  0  0  0
 19 18  2  0  0  0  0
 20 17  1  0  0  0  0
 20 21  2  0  0  0  0
 21 19  1  0  0  0  0
M  END
>  <ID>
5149629

>  <Supplier>
ChemBridge

>  <clogP>
4.430000000000002e+000

>  <RB>
4

>  <tPSA>
4.575000000000000e+001

>  <Hacc>
2

>  <Hdon>
1

>  <LogSw>
-5.145000000000000e+000

>  <Group>
2

>  <Core>
031

$$$$
7405551
 OpenBabel03312015312D

 33 36  0  0  0  0  0  0  0  0999 V2000
    6.3417   -3.4250    0.0000 N   0  0  0  0  0  0  0  0  0  0  0  0
    8.8625   -4.3125    0.0000 S   0  0  0  0  0  0  0  0  0  0  0  0
    5.8125   -3.6667    0.0000 C   0  0  0  0  0  0  0  0  0  0  0  0
    6.2792   -2.8417    0.0000 C   0  0  0  0  0  0  0  0  0  0  0  0
    9.3750   -4.0250    0.0000 N   0  0  0  0  0  0  0  0  0  0  0  0
    5.4167   -3.2292    0.0000 C   0  0  0  0  0  0  0  0  0  0  0  0
    5.7042   -2.7167    0.0000 C   0  0  0  0  0  0  0  0  0  0  0  0
    9.3792   -3.4417    0.0000 C   0  0  0  0  0  0  0  0  0  0  0  0
    8.3542   -4.6000    0.0000 C   0  0  0  0  0  0  0  0  0  0  0  0
    8.5792   -3.8042    0.0000 O   0  0  0  0  0  0  0  0  0  0  0  0
    9.1542   -4.8167    0.0000 O   0  0  0  0  0  0  0  0  0  0  0  0
    6.7042   -2.4417    0.0000 O   0  0  0  0  0  0  0  0  0  0  0  0
    5.7000   -4.2417    0.0000 O   0  0  0  0  0  0  0  0  0  0  0  0
    9.8875   -3.1542    0.0000 N   0  0  0  0  0  0  0  0  0  0  0  0
    8.8792   -3.1500    0.0000 N   0  0  0  0  0  0  0  0  0  0  0  0
    6.3375   -5.1667    0.0000 C   0  0  0  0  0  0  0  0  0  0  0  0
    6.8417   -5.4667    0.0000 N   0  0  0  0  0  0  0  0  0  0  0  0
    5.8250   -5.4625    0.0000 O   0  0  0  0  0  0  0  0  0  0  0  0
    6.8542   -3.7167    0.0000 C   0  0  0  0  0  0  0  0  0  0  0  0
    7.8542   -4.3042    0.0000 C   0  0  0  0  0  0  0  0  0  0  0  0
    8.3542   -5.1792    0.0000 C   0  0  0  0  0  0  0  0  0  0  0  0
    7.3500   -5.1750    0.0000 C   0  0  0  0  0  0  0  0  0  0  0  0
    7.3500   -4.5917    0.0000 C   0  0  0  0  0  0  0  0  0  0  0  0
    7.8500   -5.4667    0.0000 C   0  0  0  0  0  0  0  0  0  0  0  0
    5.4125   -2.2125    0.0000 C   0  0  0  0  0  0  0  0  0  0  0  0
    4.8292   -3.2292    0.0000 C   0  0  0  0  0  0  0  0  0  0  0  0
    9.3917   -2.2792    0.0000 C   0  0  0  0  0  0  0  0  0  0  0  0
    6.8542   -4.2917    0.0000 C   0  0  0  0  0  0  0  0  0  0  0  0
    8.8875   -2.5625    0.0000 C   0  0  0  0  0  0  0  0  0  0  0  0
    9.8917   -2.5750    0.0000 C   0  0  0  0  0  0  0  0  0  0  0  0
    6.3417   -4.5875    0.0000 C   0  0  0  0  0  0  0  0  0  0  0  0
    4.8167   -2.2167    0.0000 C   0  0  0  0  0  0  0  0  0  0  0  0
    4.5375   -2.7167    0.0000 C   0  0  0  0  0  0  0  0  0  0  0  0
  2  9  1  0  0  0  0
  3  1  1  0  0  0  0
  4  1  1  0  0  0  0
  5  2  1  0  0  0  0
  6  3  1  0  0  0  0
  6  7  2  0  0  0  0
  7  4  1  0  0  0  0
  8  5  1  0  0  0  0
  9 21  2  0  0  0  0
 10  2  2  0  0  0  0
 11  2  2  0  0  0  0
 12  4  2  0  0  0  0
 13  3  2  0  0  0  0
 14  8  2  0  0  0  0
 15  8  1  0  0  0  0
 16 31  1  0  0  0  0
 17 16  1  0  0  0  0
 18 16  2  0  0  0  0
 19  1  1  0  0  0  0
 20 23  2  0  0  0  0
 20  9  1  0  0  0  0
 21 24  1  0  0  0  0
 22 17  1  0  0  0  0
 23 22  1  0  0  0  0
 24 22  2  0  0  0  0
 25  7  1  0  0  0  0
 26  6  1  0  0  0  0
 27 29  1  0  0  0  0
 28 19  1  0  0  0  0
 29 15  2  0  0  0  0
 30 14  1  0  0  0  0
 30 27  2  0  0  0  0
 31 28  1  0  0  0  0
 32 25  2  0  0  0  0
 32 33  1  0  0  0  0
 33 26  2  0  0  0  0
M  END
>  <ID>
7405551

>  <Supplier>
ChemBridge

>  <clogP>
2.050000000000000e+000

>  <RB>
7

>  <tPSA>
1.384300000000000e+002

>  <Hacc>
7

>  <Hdon>
2

>  <LogSw>
-4.339000000000000e+000

>  <Group>
3

>  <Core>
234

$$$$
7921721
 OpenBabel03312015312D

 27 30  0  0  0  0  0  0  0  0999 V2000
    3.4875    2.5333    0.0000 C   0  0  0  0  0  0  0  0  0  0  0  0
    4.7875    2.5333    0.0000 C   0  0  0  0  0  0  0  0  0  0  0  0
    2.8375    2.1583    0.0000 C   0  0  0  0  0  0  0  0  0  0  0  0
    4.7875    3.2833    0.0000 N   0  0  0  0  0  0  0  0  0  0  0  0
    3.4875    3.2833    0.0000 C   0  0  0  0  0  0  0  0  0  0  0  0
    4.1375    2.1583    0.0000 C   0  0  0  0  0  0  0  0  0  0  0  0
    4.1375    3.6583    0.0000 C   0  0  0  0  0  0  0  0  0  0  0  0
    2.8375    1.4083    0.0000 N   0  0  0  0  0  0  0  0  0  0  0  0
    5.4375    2.1583    0.0000 C   0  0  0  0  0  0  0  0  0  0  0  0
    2.8375    3.6583    0.0000 C   0  0  0  0  0  0  0  0  0  0  0  0
    2.1875    2.5333    0.0000 O   0  0  0  0  0  0  0  0  0  0  0  0
    0.8875    0.2833    0.0000 N   0  0  0  0  0  0  0  0  0  0  0  0
    4.1375    4.4000    0.0000 C   0  0  0  0  0  0  0  0  0  0  0  0
    5.4375    1.4083    0.0000 C   0  0  0  0  0  0  0  0  0  0  0  0
    2.1875    1.0333    0.0000 C   0  0  0  0  0  0  0  0  0  0  0  0
    2.8375    4.4000    0.0000 C   0  0  0  0  0  0  0  0  0  0  0  0
    3.4875    4.7750    0.0000 C   0  0  0  0  0  0  0  0  0  0  0  0
    2.1875    4.7750    0.0000 Cl  0  0  0  0  0  0  0  0  0  0  0  0
    2.1875    0.2833    0.0000 C   0  0  0  0  0  0  0  0  0  0  0  0
    1.5375    1.4083    0.0000 C   0  0  0  0  0  0  0  0  0  0  0  0
    1.5375   -0.0917    0.0000 C   0  0  0  0  0  0  0  0  0  0  0  0
    0.8875    1.0333    0.0000 C   0  0  0  0  0  0  0  0  0  0  0  0
    6.0875    2.5333    0.0000 C   0  0  0  0  0  0  0  0  0  0  0  0
    4.7875    1.0333    0.0000 C   0  0  0  0  0  0  0  0  0  0  0  0
    6.0875    1.0333    0.0000 C   0  0  0  0  0  0  0  0  0  0  0  0
    6.7292    2.1583    0.0000 C   0  0  0  0  0  0  0  0  0  0  0  0
    6.7292    1.4083    0.0000 C   0  0  0  0  0  0  0  0  0  0  0  0
  2  6  2  0  0  0  0
  3  1  1  0  0  0  0
  4  2  1  0  0  0  0
  4  7  2  0  0  0  0
  5  1  2  0  0  0  0
  6  1  1  0  0  0  0
  7  5  1  0  0  0  0
  8  3  1  0  0  0  0
  9  2  1  0  0  0  0
 10  5  1  0  0  0  0
 11  3  2  0  0  0  0
 12 22  1  0  0  0  0
 12 21  2  0  0  0  0
 13  7  1  0  0  0  0
 14  9  1  0  0  0  0
 15  8  1  0  0  0  0
 16 10  2  0  0  0  0
 17 16  1  0  0  0  0
 17 13  2  0  0  0  0
 18 16  1  0  0  0  0
 19 15  2  0  0  0  0
 20 15  1  0  0  0  0
 21 19  1  0  0  0  0
 22 20  2  0  0  0  0
 23  9  2  0  0  0  0
 24 14  1  0  0  0  0
 25 14  2  0  0  0  0
 25 27  1  0  0  0  0
 26 23  1  0  0  0  0
 27 26  2  0  0  0  0
M  END
>  <ID>
7921721

>  <Supplier>
ChemBridge

>  <clogP>
5.230000000000000e+000

>  <RB>
3

>  <tPSA>
5.488000000000000e+001

>  <Hacc>
3

>  <Hdon>
1

>  <LogSw>
-6.392000000000000e+000

>  <Group>
1

>  <Core>
120

$$$$
7954758
 OpenBabel03312015312D

 22 23  0  0  0  0  0  0  0  0999 V2000
    9.7750    1.7875    0.0000 C   0  0  0  0  0  0  0  0  0  0  0  0
   10.4250    1.4125    0.0000 C   0  0  0  0  0  0  0  0  0  0  0  0
    9.1250    1.4125    0.0000 N   0  0  0  0  0  0  0  0  0  0  0  0
   11.0750    1.7875    0.0000 N   0  0  0  0  0  0  0  0  0  0  0  0
    9.7750    2.5375    0.0000 S   0  0  0  0  0  0  0  0  0  0  0  0
    8.4792    1.7875    0.0000 C   0  0  3  0  0  0  0  0  0  0  0  0
   10.4250    0.6625    0.0000 O   0  0  0  0  0  0  0  0  0  0  0  0
    7.8292    1.4125    0.0000 C   0  0  0  0  0  0  0  0  0  0  0  0
   11.7250    1.4125    0.0000 C   0  0  0  0  0  0  0  0  0  0  0  0
   13.0250    0.6625    0.0000 C   0  0  0  0  0  0  0  0  0  0  0  0
   12.3750    1.7875    0.0000 C   0  0  0  0  0  0  0  0  0  0  0  0
   11.7250    0.6625    0.0000 C   0  0  0  0  0  0  0  0  0  0  0  0
   13.0250    1.4125    0.0000 C   0  0  0  0  0  0  0  0  0  0  0  0
   12.3750    0.2875    0.0000 C   0  0  0  0  0  0  0  0  0  0  0  0
   13.6750    0.2875    0.0000 O   0  0  0  0  0  0  0  0  0  0  0  0
    8.4792    2.5375    0.0000 C   0  0  0  0  0  0  0  0  0  0  0  0
    7.1792    1.7875    0.0000 C   0  0  0  0  0  0  0  0  0  0  0  0
    7.8292    0.6625    0.0000 C   0  0  0  0  0  0  0  0  0  0  0  0
   13.6750   -0.4625    0.0000 C   0  0  0  0  0  0  0  0  0  0  0  0
    7.1792    0.2875    0.0000 C   0  0  0  0  0  0  0  0  0  0  0  0
    6.5292    1.4125    0.0000 C   0  0  0  0  0  0  0  0  0  0  0  0
    6.5292    0.6625    0.0000 C   0  0  0  0  0  0  0  0  0  0  0  0
  2  1  1  0  0  0  0
  3  1  1  0  0  0  0
  4  2  1  0  0  0  0
  5  1  2  0  0  0  0
  6  3  1  0  0  0  0
  7  2  2  0  0  0  0
  8  6  1  0  0  0  0
  9  4  1  0  0  0  0
 10 14  2  0  0  0  0
 10 13  1  0  0  0  0
 11  9  1  0  0  0  0
 12  9  2  0  0  0  0
 13 11  2  0  0  0  0
 14 12  1  0  0  0  0
 15 10  1  0  0  0  0
 16  6  1  0  0  0  0
 17  8  2  0  0  0  0
 18  8  1  0  0  0  0
 19 15  1  0  0  0  0
 20 18  2  0  0  0  0
 21 17  1  0  0  0  0
 21 22  2  0  0  0  0
 22 20  1  0  0  0  0
M  END
>  <ID>
7954758

>  <Supplier>
ChemBridge

>  <clogP>
2.950000000000000e+000

>  <RB>
4

>  <tPSA>
5.036000000000001e+001

>  <Hacc>
2

>  <Hdon>
2

>  <LogSw>
-4.012000000000000e+000

>  <Group>
1

>  <Core>
482

$$$$
7516601
 OpenBabel03312015312D

 23 26  0  0  0  0  0  0  0  0999 V2000
   -1.0125    0.8333    0.0000 O   0  0  0  0  0  0  0  0  0  0  0  0
   -0.4458    1.6333    0.0000 C   0  0  0  0  0  0  0  0  0  0  0  0
   -0.9833    2.4458    0.0000 N   0  0  0  0  0  0  0  0  0  0  0  0
   -1.9458    2.1458    0.0000 N   0  0  0  0  0  0  0  0  0  0  0  0
   -2.8333   -0.3292    0.0000 C   0  0  0  0  0  0  0  0  0  0  0  0
   -1.9500    1.1500    0.0000 C   0  0  0  0  0  0  0  0  0  0  0  0
   -2.3458   -1.8500    0.0000 N   0  0  0  0  0  0  0  0  0  0  0  0
   -2.0500   -0.8667    0.0000 C   0  0  0  0  0  0  0  0  0  0  0  0
   -3.6333   -0.9042    0.0000 C   0  0  0  0  0  0  0  0  0  0  0  0
   -2.8208    0.6500    0.0000 C   0  0  0  0  0  0  0  0  0  0  0  0
   -3.3208   -1.8500    0.0000 C   0  0  0  0  0  0  0  0  0  0  0  0
    0.5375    1.5958    0.0000 S   0  0  0  0  0  0  0  0  0  0  0  0
    1.0292    0.7208    0.0000 C   0  0  0  0  0  0  0  0  0  0  0  0
    2.0167    0.7125    0.0000 C   0  0  0  0  0  0  0  0  0  0  0  0
   -4.5833   -0.7000    0.0000 C   0  0  0  0  0  0  0  0  0  0  0  0
   -3.9833   -2.5667    0.0000 C   0  0  0  0  0  0  0  0  0  0  0  0
    2.5000   -0.1542    0.0000 C   0  0  0  0  0  0  0  0  0  0  0  0
    2.5292    1.5500    0.0000 C   0  0  0  0  0  0  0  0  0  0  0  0
   -5.2708   -1.4375    0.0000 C   0  0  0  0  0  0  0  0  0  0  0  0
   -4.9583   -2.3667    0.0000 C   0  0  0  0  0  0  0  0  0  0  0  0
    3.4875   -0.1875    0.0000 C   0  0  0  0  0  0  0  0  0  0  0  0
    3.5167    1.5458    0.0000 C   0  0  0  0  0  0  0  0  0  0  0  0
    4.0000    0.6625    0.0000 C   0  0  0  0  0  0  0  0  0  0  0  0
  2  1  1  0  0  0  0
  3  2  2  0  0  0  0
  3  4  1  0  0  0  0
  4  6  2  0  0  0  0
  5 10  1  0  0  0  0
  6  1  1  0  0  0  0
  7  8  1  0  0  0  0
  7 11  1  0  0  0  0
  8  5  2  0  0  0  0
  9  5  1  0  0  0  0
 10  6  1  0  0  0  0
 11  9  2  0  0  0  0
 12  2  1  0  0  0  0
 13 12  1  0  0  0  0
 14 13  1  0  0  0  0
 15  9  1  0  0  0  0
 16 11  1  0  0  0  0
 17 14  2  0  0  0  0
 18 14  1  0  0  0  0
 19 15  2  0  0  0  0
 20 19  1  0  0  0  0
 20 16  2  0  0  0  0
 21 17  1  0  0  0  0
 22 18  2  0  0  0  0
 23 22  1  0  0  0  0
 23 21  2  0  0  0  0
M  END
>  <ID>
7516601

>  <Supplier>
ChemBridge

>  <clogP>
2.668000000000000e+000

>  <RB>
5

>  <tPSA>
5.471000000000002e+001

>  <Hacc>
3

>  <Hdon>
1

>  <LogSw>
-4.971000000000002e+000

>  <Group>
3

>  <Core>
033

$$$$
7954756
 OpenBabel03312015312D

 29 31  0  0  0  0  0  0  0  0999 V2000
    5.8167    2.2333    0.0000 S   0  0  0  0  0  0  0  0  0  0  0  0
    5.8167    2.9833    0.0000 N   0  0  0  0  0  0  0  0  0  0  0  0
    5.1667    3.3583    0.0000 C   0  0  0  0  0  0  0  0  0  0  0  0
    6.4667    3.3583    0.0000 C   0  0  0  0  0  0  0  0  0  0  0  0
    4.5917    2.8750    0.0000 C   0  0  0  0  0  0  0  0  0  0  0  0
    3.8917    3.1333    0.0000 N   0  0  0  0  0  0  0  0  0  0  0  0
    2.4792    3.6458    0.0000 N   0  0  0  0  0  0  0  0  0  0  0  0
    6.4667    4.0917    0.0000 C   0  0  0  0  0  0  0  0  0  0  0  0
    1.7792    3.9000    0.0000 C   0  0  0  0  0  0  0  0  0  0  0  0
    7.1167    2.9833    0.0000 C   0  0  0  0  0  0  0  0  0  0  0  0
    7.1167    4.4667    0.0000 C   0  0  0  0  0  0  0  0  0  0  0  0
    5.0917    2.0375    0.0000 O   0  0  0  0  0  0  0  0  0  0  0  0
    6.5667    2.2958    0.0000 O   0  0  0  0  0  0  0  0  0  0  0  0
    1.6417    4.6292    0.0000 C   0  0  0  0  0  0  0  0  0  0  0  0
    3.3167    2.6500    0.0000 C   0  0  0  0  0  0  0  0  0  0  0  0
    3.7625    3.8708    0.0000 C   0  0  0  0  0  0  0  0  0  0  0  0
    2.6125    2.9083    0.0000 C   0  0  0  0  0  0  0  0  0  0  0  0
    3.0542    4.1167    0.0000 C   0  0  0  0  0  0  0  0  0  0  0  0
    4.6875    2.3583    0.0000 O   0  0  0  0  0  0  0  0  0  0  0  0
    7.7667    4.0917    0.0000 C   0  0  0  0  0  0  0  0  0  0  0  0
    5.9500    1.4958    0.0000 C   0  0  0  0  0  0  0  0  0  0  0  0
    5.8167    4.4667    0.0000 Cl  0  0  0  0  0  0  0  0  0  0  0  0
    0.9417    4.8917    0.0000 C   0  0  0  0  0  0  0  0  0  0  0  0
    7.7667    3.3583    0.0000 C   0  0  0  0  0  0  0  0  0  0  0  0
    8.4167    4.4667    0.0000 Cl  0  0  0  0  0  0  0  0  0  0  0  0
    0.8125    5.6292    0.0000 Cl  0  0  0  0  0  0  0  0  0  0  0  0
    1.2042    3.4208    0.0000 C   0  0  0  0  0  0  0  0  0  0  0  0
    0.5000    3.6750    0.0000 C   0  0  0  0  0  0  0  0  0  0  0  0
    0.3667    4.4042    0.0000 C   0  0  0  0  0  0  0  0  0  0  0  0
  2  1  1  0  0  0  0
  3  2  1  0  0  0  0
  4  2  1  0  0  0  0
  5  3  1  0  0  0  0
  6  5  1  0  0  0  0
  7 18  1  0  0  0  0
  8  4  1  0  0  0  0
  9  7  1  0  0  0  0
 10  4  2  0  0  0  0
 11  8  2  0  0  0  0
 11 20  1  0  0  0  0
 12  1  2  0  0  0  0
 13  1  2  0  0  0  0
 14  9  2  0  0  0  0
 15  6  1  0  0  0  0
 16  6  1  0  0  0  0
 17 15  1  0  0  0  0
 17  7  1  0  0  0  0
 18 16  1  0  0  0  0
 19  5  2  0  0  0  0
 20 24  2  0  0  0  0
 21  1  1  0  0  0  0
 22  8  1  0  0  0  0
 23 14  1  0  0  0  0
 24 10  1  0  0  0  0
 25 20  1  0  0  0  0
 26 23  1  0  0  0  0
 27  9  1  0  0  0  0
 28 27  2  0  0  0  0
 29 28  1  0  0  0  0
 29 23  2  0  0  0  0
M  END
>  <ID>
7954756

>  <Supplier>
ChemBridge

>  <clogP>
3.555000000000000e+000

>  <RB>
4

>  <tPSA>
6.093000000000000e+001

>  <Hacc>
3

>  <Hdon>
0

>  <LogSw>
-5.711000000000000e+000

>  <Group>
1

>  <Core>
554

$$$$
7954754
 OpenBabel03312015312D

 28 30  0  0  0  0  0  0  0  0999 V2000
    5.5917    1.6250    0.0000 C   0  0  0  0  0  0  0  0  0  0  0  0
    5.5917    2.3750    0.0000 C   0  0  0  0  0  0  0  0  0  0  0  0
    4.9417    1.2500    0.0000 N   0  0  0  0  0  0  0  0  0  0  0  0
   10.1417    2.7500    0.0000 C   0  0  0  0  0  0  0  0  0  0  0  0
    6.2417    2.7500    0.0000 C   0  0  0  0  0  0  0  0  0  0  0  0
    6.8917    2.3750    0.0000 N   0  0  0  0  0  0  0  0  0  0  0  0
    7.5417    2.7500    0.0000 C   0  0  0  0  0  0  0  0  0  0  0  0
    6.2417    1.2500    0.0000 O   0  0  0  0  0  0  0  0  0  0  0  0
   10.7917    2.3750    0.0000 C   0  0  0  0  0  0  0  0  0  0  0  0
   10.1417    3.5000    0.0000 C   0  0  0  0  0  0  0  0  0  0  0  0
    7.5417    3.5000    0.0000 O   0  0  0  0  0  0  0  0  0  0  0  0
    3.6417    0.5000    0.0000 O   0  0  0  0  0  0  0  0  0  0  0  0
    8.8417    2.7500    0.0000 S   0  0  0  0  0  0  0  0  0  0  0  0
    9.4917    2.3750    0.0000 C   0  0  0  0  0  0  0  0  0  0  0  0
   10.7917    1.6250    0.0000 F   0  0  0  0  0  0  0  0  0  0  0  0
    9.4917    3.8750    0.0000 Cl  0  0  0  0  0  0  0  0  0  0  0  0
    4.9417    2.7500    0.0000 C   0  0  0  0  0  0  0  0  0  0  0  0
    8.1917    2.3750    0.0000 C   0  0  0  0  0  0  0  0  0  0  0  0
    4.9417    0.5000    0.0000 C   0  0  0  0  0  0  0  0  0  0  0  0
    4.2917    1.6250    0.0000 C   0  0  0  0  0  0  0  0  0  0  0  0
    6.2417    3.5000    0.0000 C   0  0  0  0  0  0  0  0  0  0  0  0
   11.4417    3.5000    0.0000 C   0  0  0  0  0  0  0  0  0  0  0  0
   10.7917    3.8750    0.0000 C   0  0  0  0  0  0  0  0  0  0  0  0
   11.4417    2.7500    0.0000 C   0  0  0  0  0  0  0  0  0  0  0  0
    4.2917    0.1250    0.0000 C   0  0  0  0  0  0  0  0  0  0  0  0
    3.6417    1.2500    0.0000 C   0  0  0  0  0  0  0  0  0  0  0  0
    4.9417    3.5000    0.0000 C   0  0  0  0  0  0  0  0  0  0  0  0
    5.5917    3.8750    0.0000 C   0  0  0  0  0  0  0  0  0  0  0  0
  2  1  1  0  0  0  0
  3  1  1  0  0  0  0
  4 14  1  0  0  0  0
  5  2  1  0  0  0  0
  6  5  1  0  0  0  0
  7  6  1  0  0  0  0
  8  1  2  0  0  0  0
  9  4  1  0  0  0  0
 10  4  2  0  0  0  0
 11  7  2  0  0  0  0
 12 26  1  0  0  0  0
 12 25  1  0  0  0  0
 13 18  1  0  0  0  0
 14 13  1  0  0  0  0
 15  9  1  0  0  0  0
 16 10  1  0  0  0  0
 17  2  2  0  0  0  0
 18  7  1  0  0  0  0
 19  3  1  0  0  0  0
 20  3  1  0  0  0  0
 21  5  2  0  0  0  0
 22 23  2  0  0  0  0
 23 10  1  0  0  0  0
 24  9  2  0  0  0  0
 24 22  1  0  0  0  0
 25 19  1  0  0  0  0
 26 20  1  0  0  0  0
 27 17  1  0  0  0  0
 28 27  2  0  0  0  0
 28 21  1  0  0  0  0
M  END
>  <ID>
7954754

>  <Supplier>
ChemBridge

>  <clogP>
3.343000000000000e+000

>  <RB>
6

>  <tPSA>
5.863999999999997e+001

>  <Hacc>
3

>  <Hdon>
1

>  <LogSw>
-5.138000000000000e+000

>  <Group>
2

>  <Core>
570

$$$$
7921720
 OpenBabel03312015312D

 28 31  0  0  0  0  0  0  0  0999 V2000
    3.9875    1.2000    0.0000 C   0  0  0  0  0  0  0  0  0  0  0  0
    3.3000    1.5083    0.0000 S   0  0  0  0  0  0  0  0  0  0  0  0
    4.6292    1.5750    0.0000 N   0  0  0  0  0  0  0  0  0  0  0  0
    4.6292    2.3333    0.0000 C   0  0  0  0  0  0  0  0  0  0  0  0
    5.2792    2.7083    0.0000 C   0  0  0  0  0  0  0  0  0  0  0  0
    3.9042    0.4583    0.0000 N   0  0  0  0  0  0  0  0  0  0  0  0
    2.8000    0.9458    0.0000 C   0  0  0  0  0  0  0  0  0  0  0  0
    3.1750    0.2958    0.0000 N   0  0  0  0  0  0  0  0  0  0  0  0
    6.5792    3.4583    0.0000 N   0  0  0  0  0  0  0  0  0  0  0  0
    5.2792    3.4583    0.0000 C   0  0  0  0  0  0  0  0  0  0  0  0
    6.5792    2.7083    0.0000 C   0  0  0  0  0  0  0  0  0  0  0  0
    5.9292    2.3333    0.0000 C   0  0  0  0  0  0  0  0  0  0  0  0
    5.9292    3.8333    0.0000 C   0  0  0  0  0  0  0  0  0  0  0  0
    7.2292    2.3333    0.0000 C   0  0  0  0  0  0  0  0  0  0  0  0
    3.9875    2.7083    0.0000 O   0  0  0  0  0  0  0  0  0  0  0  0
    4.6292    3.8333    0.0000 C   0  0  0  0  0  0  0  0  0  0  0  0
    7.8792    1.2000    0.0000 N   0  0  0  0  0  0  0  0  0  0  0  0
    5.9292    4.5667    0.0000 C   0  0  0  0  0  0  0  0  0  0  0  0
    2.0542    1.0250    0.0000 S   0  0  0  0  0  0  0  0  0  0  0  0
    4.6292    4.5667    0.0000 C   0  0  0  0  0  0  0  0  0  0  0  0
    5.2792    4.9417    0.0000 C   0  0  0  0  0  0  0  0  0  0  0  0
    7.2292    1.5750    0.0000 C   0  0  0  0  0  0  0  0  0  0  0  0
    3.9875    4.9417    0.0000 Cl  0  0  0  0  0  0  0  0  0  0  0  0
    7.8792    2.7083    0.0000 C   0  0  0  0  0  0  0  0  0  0  0  0
    8.5292    1.5750    0.0000 C   0  0  0  0  0  0  0  0  0  0  0  0
    1.6125    0.4208    0.0000 C   0  0  0  0  0  0  0  0  0  0  0  0
    8.5292    2.3333    0.0000 C   0  0  0  0  0  0  0  0  0  0  0  0
    0.8667    0.4958    0.0000 C   0  0  0  0  0  0  0  0  0  0  0  0
  2  1  1  0  0  0  0
  3  1  1  0  0  0  0
  4  3  1  0  0  0  0
  5  4  1  0  0  0  0
  6  1  2  0  0  0  0
  7  2  1  0  0  0  0
  7  8  2  0  0  0  0
  8  6  1  0  0  0  0
  9 11  1  0  0  0  0
  9 13  2  0  0  0  0
 10  5  2  0  0  0  0
 11 12  2  0  0  0  0
 12  5  1  0  0  0  0
 13 10  1  0  0  0  0
 14 11  1  0  0  0  0
 15  4  2  0  0  0  0
 16 10  1  0  0  0  0
 17 22  2  0  0  0  0
 17 25  1  0  0  0  0
 18 13  1  0  0  0  0
 19  7  1  0  0  0  0
 20 16  2  0  0  0  0
 21 20  1  0  0  0  0
 21 18  2  0  0  0  0
 22 14  1  0  0  0  0
 23 20  1  0  0  0  0
 24 14  2  0  0  0  0
 25 27  2  0  0  0  0
 26 19  1  0  0  0  0
 27 24  1  0  0  0  0
 28 26  1  0  0  0  0
M  END
>  <ID>
7921720

>  <Supplier>
ChemBridge

>  <clogP>
3.810000000000000e+000

>  <RB>
4

>  <tPSA>
8.066000000000004e+001

>  <Hacc>
5

>  <Hdon>
1

>  <LogSw>
-5.573000000000000e+000

>  <Group>
3

>  <Core>
120

$$$$
7405559
 OpenBabel03312015312D

 21 23  0  0  0  0  0  0  0  0999 V2000
    6.1167   -1.1417    0.0000 C   0  0  0  0  0  0  0  0  0  0  0  0
    6.1125   -0.4917    0.0000 N   0  3  0  0  0  0  0  0  0  0  0  0
    6.5792   -3.2500    0.0000 C   0  0  0  0  0  0  0  0  0  0  0  0
    5.8792   -4.0375    0.0000 C   0  0  0  0  0  0  0  0  0  0  0  0
    6.9125   -3.8167    0.0000 C   0  0  0  0  0  0  0  0  0  0  0  0
    6.4792   -4.3042    0.0000 O   0  0  0  0  0  0  0  0  0  0  0  0
    5.9542   -3.3917    0.0000 C   0  0  0  0  0  0  0  0  0  0  0  0
    6.6500   -1.5167    0.0000 O   0  0  0  0  0  0  0  0  0  0  0  0
    6.4500   -2.1292    0.0000 C   0  0  0  0  0  0  0  0  0  0  0  0
    6.8375   -2.6542    0.0000 C   0  0  0  0  0  0  0  0  0  0  0  0
    5.5917   -1.5292    0.0000 C   0  0  0  0  0  0  0  0  0  0  0  0
    5.8042   -2.1417    0.0000 C   0  0  0  0  0  0  0  0  0  0  0  0
    6.6667   -0.1542    0.0000 O   0  5  0  0  0  0  0  0  0  0  0  0
    5.5417   -0.1667    0.0000 O   0  0  0  0  0  0  0  0  0  0  0  0
    7.5542   -3.8875    0.0000 O   0  0  0  0  0  0  0  0  0  0  0  0
    5.3167   -4.3625    0.0000 C   0  0  0  0  0  0  0  0  0  0  0  0
    4.7542   -4.0375    0.0000 C   0  0  0  0  0  0  0  0  0  0  0  0
    5.3167   -5.0125    0.0000 C   0  0  0  0  0  0  0  0  0  0  0  0
    4.2000   -4.3625    0.0000 C   0  0  0  0  0  0  0  0  0  0  0  0
    4.7542   -5.3375    0.0000 C   0  0  0  0  0  0  0  0  0  0  0  0
    4.2000   -5.0125    0.0000 C   0  0  0  0  0  0  0  0  0  0  0  0
  2  1  1  0  0  0  0
  3 10  2  0  0  0  0
  4  7  2  0  0  0  0
  4  6  1  0  0  0  0
  5  3  1  0  0  0  0
  6  5  1  0  0  0  0
  7  3  1  0  0  0  0
  8  1  1  0  0  0  0
  9  8  1  0  0  0  0
 10  9  1  0  0  0  0
 11  1  2  0  0  0  0
 12 11  1  0  0  0  0
 12  9  2  0  0  0  0
 13  2  1  0  0  0  0
 14  2  2  0  0  0  0
 15  5  2  0  0  0  0
 16  4  1  0  0  0  0
 17 16  2  0  0  0  0
 18 16  1  0  0  0  0
 19 17  1  0  0  0  0
 19 21  2  0  0  0  0
 20 18  2  0  0  0  0
 21 20  1  0  0  0  0
M  CHG  2   2   1  13  -1
M  END
>  <ID>
7405559

>  <Supplier>
ChemBridge

>  <clogP>
3.233000000000000e+000

>  <RB>
2

>  <tPSA>
8.258000000000001e+001

>  <Hacc>
5

>  <Hdon>
0

>  <LogSw>
-3.766000000000000e+000

>  <Group>
2

>  <Core>
309

$$$$
5556989
 OpenBabel03312015312D

 21 22  0  0  0  0  0  0  0  0999 V2000
    2.2292   -6.6792    0.0000 S   0  0  0  0  0  0  0  0  0  0  0  0
    2.9792   -6.6875    0.0000 N   0  0  0  0  0  0  0  0  0  0  0  0
    1.4792   -6.6792    0.0000 C   0  0  0  0  0  0  0  0  0  0  0  0
    2.2167   -5.9292    0.0000 O   0  0  0  0  0  0  0  0  0  0  0  0
    2.2167   -7.4292    0.0000 O   0  0  0  0  0  0  0  0  0  0  0  0
   -1.1458   -6.0292    0.0000 C   0  0  0  0  0  0  0  0  0  0  0  0
   -0.7625   -6.6792    0.0000 N   0  0  0  0  0  0  0  0  0  0  0  0
    4.4875   -5.4000    0.0000 N   0  0  0  0  0  0  0  0  0  0  0  0
    3.3542   -6.0375    0.0000 C   0  0  0  0  0  0  0  0  0  0  0  0
   -1.8833   -6.0375    0.0000 O   0  0  0  0  0  0  0  0  0  0  0  0
    1.1042   -7.3292    0.0000 C   0  0  0  0  0  0  0  0  0  0  0  0
    1.1042   -6.0292    0.0000 C   0  0  0  0  0  0  0  0  0  0  0  0
    4.1042   -6.0375    0.0000 C   0  0  0  0  0  0  0  0  0  0  0  0
   -0.0125   -6.6792    0.0000 C   0  0  0  0  0  0  0  0  0  0  0  0
    0.3542   -7.3292    0.0000 C   0  0  0  0  0  0  0  0  0  0  0  0
    0.3542   -6.0292    0.0000 C   0  0  0  0  0  0  0  0  0  0  0  0
   -0.7625   -5.3875    0.0000 C   0  0  0  0  0  0  0  0  0  0  0  0
    5.2375   -5.3875    0.0000 C   0  0  0  0  0  0  0  0  0  0  0  0
    4.4875   -6.6875    0.0000 C   0  0  0  0  0  0  0  0  0  0  0  0
    5.6042   -6.0500    0.0000 C   0  0  0  0  0  0  0  0  0  0  0  0
    5.2375   -6.7000    0.0000 C   0  0  0  0  0  0  0  0  0  0  0  0
  2  1  1  0  0  0  0
  3  1  1  0  0  0  0
  4  1  2  0  0  0  0
  5  1  2  0  0  0  0
  6  7  1  0  0  0  0
  7 14  1  0  0  0  0
  8 13  2  0  0  0  0
  9  2  1  0  0  0  0
 10  6  2  0  0  0  0
 11  3  1  0  0  0  0
 12  3  2  0  0  0  0
 13  9  1  0  0  0  0
 14 16  2  0  0  0  0
 15 11  2  0  0  0  0
 15 14  1  0  0  0  0
 16 12  1  0  0  0  0
 17  6  1  0  0  0  0
 18  8  1  0  0  0  0
 18 20  2  0  0  0  0
 19 13  1  0  0  0  0
 20 21  1  0  0  0  0
 21 19  2  0  0  0  0
M  END
>  <ID>
5556989

>  <Supplier>
ChemBridge

>  <clogP>
5.300000000000000e-001

>  <RB>
4

>  <tPSA>
8.816000000000003e+001

>  <Hacc>
5

>  <Hdon>
2

>  <LogSw>
-5.800000000000000e-001

>  <Group>
2

>  <Core>
234

$$$$
7954750
 OpenBabel03312015312D

 26 29  0  0  0  0  0  0  0  0999 V2000
    4.1417    1.9833    0.0000 N   0  0  0  0  0  0  0  0  0  0  0  0
    4.1417    1.2333    0.0000 C   0  0  0  0  0  0  0  0  0  0  0  0
    4.7917    2.3583    0.0000 C   0  0  0  0  0  0  0  0  0  0  0  0
    5.4417    1.9833    0.0000 C   0  0  0  0  0  0  0  0  0  0  0  0
    4.7917    0.8583    0.0000 N   0  0  0  0  0  0  0  0  0  0  0  0
    5.4417    1.2333    0.0000 C   0  0  0  0  0  0  0  0  0  0  0  0
    3.4917    2.3583    0.0000 C   0  0  0  0  0  0  0  0  0  0  0  0
    7.3917    0.8583    0.0000 C   0  0  0  0  0  0  0  0  0  0  0  0
    6.0917    0.8583    0.0000 C   0  0  0  0  0  0  0  0  0  0  0  0
    6.0917    2.3583    0.0000 C   0  0  0  0  0  0  0  0  0  0  0  0
    6.7417    1.2333    0.0000 C   0  0  0  0  0  0  0  0  0  0  0  0
    3.4917    0.8583    0.0000 S   0  0  0  0  0  0  0  0  0  0  0  0
    1.5417    1.9833    0.0000 C   0  0  0  0  0  0  0  0  0  0  0  0
    4.7917    3.1083    0.0000 O   0  0  0  0  0  0  0  0  0  0  0  0
    1.5417    1.2333    0.0000 C   0  0  0  0  0  0  0  0  0  0  0  0
    0.8292    2.2125    0.0000 O   0  0  0  0  0  0  0  0  0  0  0  0
    0.8292    1.0000    0.0000 O   0  0  0  0  0  0  0  0  0  0  0  0
    0.3917    1.6083    0.0000 C   0  0  0  0  0  0  0  0  0  0  0  0
    2.1917    2.3583    0.0000 C   0  0  0  0  0  0  0  0  0  0  0  0
    2.8417    1.9833    0.0000 C   0  0  0  0  0  0  0  0  0  0  0  0
    6.7417    1.9833    0.0000 C   0  0  0  0  0  0  0  0  0  0  0  0
    7.3917    0.1083    0.0000 O   0  0  0  0  0  0  0  0  0  0  0  0
    2.1917    0.8583    0.0000 C   0  0  0  0  0  0  0  0  0  0  0  0
    2.8417    1.2333    0.0000 C   0  0  0  0  0  0  0  0  0  0  0  0
    8.0417    1.2333    0.0000 O   0  0  0  0  0  0  0  0  0  0  0  0
    8.6917    0.8583    0.0000 C   0  0  0  0  0  0  0  0  0  0  0  0
  2  1  1  0  0  0  0
  3  1  1  0  0  0  0
  4  3  1  0  0  0  0
  5  2  1  0  0  0  0
  6  4  1  0  0  0  0
  6  5  1  0  0  0  0
  7  1  1  0  0  0  0
  8 11  1  0  0  0  0
  9  6  2  0  0  0  0
  9 11  1  0  0  0  0
 10  4  2  0  0  0  0
 11 21  2  0  0  0  0
 12  2  2  0  0  0  0
 13 19  2  0  0  0  0
 13 15  1  0  0  0  0
 14  3  2  0  0  0  0
 15 23  2  0  0  0  0
 16 13  1  0  0  0  0
 17 15  1  0  0  0  0
 17 18  1  0  0  0  0
 18 16  1  0  0  0  0
 19 20  1  0  0  0  0
 20  7  1  0  0  0  0
 21 10  1  0  0  0  0
 22  8  2  0  0  0  0
 23 24  1  0  0  0  0
 24 20  2  0  0  0  0
 25  8  1  0  0  0  0
 26 25  1  0  0  0  0
M  END
>  <ID>
7954750

>  <Supplier>
ChemBridge

>  <clogP>
2.187000000000000e+000

>  <RB>
3

>  <tPSA>
8.255000000000004e+001

>  <Hacc>
5

>  <Hdon>
1

>  <LogSw>
-3.768000000000000e+000

>  <Group>
1

>  <Core>
242

$$$$
6620392
 OpenBabel03312015312D

 23 24  0  0  0  0  0  0  0  0999 V2000
    5.4500    1.7333    0.0000 S   0  0  0  0  0  0  0  0  0  0  0  0
    4.7000    1.2708    0.0000 C   0  0  0  0  0  0  0  0  0  0  0  0
    5.0000    2.4958    0.0000 O   0  0  0  0  0  0  0  0  0  0  0  0
    6.2042    2.1833    0.0000 O   0  0  0  0  0  0  0  0  0  0  0  0
    0.0000    0.0000    0.0000 C   0  0  0  0  0  0  0  0  0  0  0  0
    5.9042    0.9625    0.0000 N   0  0  0  0  0  0  0  0  0  0  0  0
   -0.4458    0.7708    0.0000 O   0  0  0  0  0  0  0  0  0  0  0  0
    4.7000    0.3958    0.0000 C   0  0  0  0  0  0  0  0  0  0  0  0
    3.9375    1.7000    0.0000 C   0  0  0  0  0  0  0  0  0  0  0  0
    0.8792    0.0000    0.0000 N   0  0  0  0  0  0  0  0  0  0  0  0
   -0.5833   -0.6500    0.0000 C   0  0  0  0  0  0  0  0  0  0  0  0
   -1.4833   -0.5000    0.0000 C   0  0  0  0  0  0  0  0  0  0  0  0
   -3.1958   -0.1292    0.0000 C   0  0  0  0  0  0  0  0  0  0  0  0
    3.9375   -0.0167    0.0000 C   0  0  0  0  0  0  0  0  0  0  0  0
    3.1792    1.3000    0.0000 C   0  0  0  0  0  0  0  0  0  0  0  0
    3.1792    0.3958    0.0000 C   0  0  0  0  0  0  0  0  0  0  0  0
   -4.0625    0.0625    0.0000 Cl  0  0  0  0  0  0  0  0  0  0  0  0
   -2.5958    0.5000    0.0000 C   0  0  0  0  0  0  0  0  0  0  0  0
   -2.9333   -0.9542    0.0000 C   0  0  0  0  0  0  0  0  0  0  0  0
   -2.0625   -1.1542    0.0000 C   0  0  0  0  0  0  0  0  0  0  0  0
   -1.7458    0.3208    0.0000 C   0  0  0  0  0  0  0  0  0  0  0  0
    1.6500    0.4208    0.0000 C   0  0  0  0  0  0  0  0  0  0  0  0
    2.4042   -0.0167    0.0000 C   0  0  0  0  0  0  0  0  0  0  0  0
  2  1  1  0  0  0  0
  3  1  2  0  0  0  0
  4  1  2  0  0  0  0
  5 10  1  0  0  0  0
  6  1  1  0  0  0  0
  7  5  2  0  0  0  0
  8  2  2  0  0  0  0
  9  2  1  0  0  0  0
 10 22  1  0  0  0  0
 11  5  1  0  0  0  0
 12 11  1  0  0  0  0
 13 18  1  0  0  0  0
 14  8  1  0  0  0  0
 14 16  2  0  0  0  0
 15  9  2  0  0  0  0
 16 15  1  0  0  0  0
 17 13  1  0  0  0  0
 18 21  2  0  0  0  0
 19 20  1  0  0  0  0
 19 13  2  0  0  0  0
 20 12  2  0  0  0  0
 21 12  1  0  0  0  0
 22 23  1  0  0  0  0
 23 16  1  0  0  0  0
M  END
>  <ID>
6620392

>  <Supplier>
ChemBridge

>  <clogP>
1.660000000000000e+000

>  <RB>
6

>  <tPSA>
8.926000000000002e+001

>  <Hacc>
4

>  <Hdon>
2

>  <LogSw>
-3.190000000000000e+000

>  <Group>
3

>  <Core>
531

$$$$
7650270
 OpenBabel03312015312D

 23 25  0  0  0  0  0  0  0  0999 V2000
    2.9542   -1.7417    0.0000 C   0  0  0  0  0  0  0  0  0  0  0  0
   -0.2958   -2.8667    0.0000 N   0  0  0  0  0  0  0  0  0  0  0  0
    2.3042   -1.3667    0.0000 N   0  0  0  0  0  0  0  0  0  0  0  0
    3.6042   -1.3667    0.0000 C   0  0  0  0  0  0  0  0  0  0  0  0
   -1.5958   -3.6250    0.0000 N   0  0  0  0  0  0  0  0  0  0  0  0
    0.3542   -2.4917    0.0000 C   0  0  0  0  0  0  0  0  0  0  0  0
    2.9542   -2.4917    0.0000 O   0  0  0  0  0  0  0  0  0  0  0  0
   -0.9458   -2.4917    0.0000 C   0  0  0  0  0  0  0  0  0  0  0  0
   -0.2958   -3.6250    0.0000 C   0  0  0  0  0  0  0  0  0  0  0  0
    4.2542   -1.7500    0.0000 C   0  0  0  0  0  0  0  0  0  0  0  0
    0.3542   -1.7417    0.0000 C   0  0  0  0  0  0  0  0  0  0  0  0
    1.0042   -2.8667    0.0000 C   0  0  0  0  0  0  0  0  0  0  0  0
    1.6542   -1.7417    0.0000 C   0  0  0  0  0  0  0  0  0  0  0  0
   -1.5958   -2.8667    0.0000 C   0  0  0  0  0  0  0  0  0  0  0  0
   -0.9458   -4.0000    0.0000 C   0  0  0  0  0  0  0  0  0  0  0  0
    4.9042   -1.3750    0.0000 C   0  0  0  0  0  0  0  0  0  0  0  0
    1.0042   -1.3667    0.0000 C   0  0  0  0  0  0  0  0  0  0  0  0
    1.6542   -2.4917    0.0000 C   0  0  0  0  0  0  0  0  0  0  0  0
    5.5542   -1.7500    0.0000 Br  0  0  0  0  0  0  0  0  0  0  0  0
   -2.2458   -4.0000    0.0000 C   0  0  0  0  0  0  0  0  0  0  0  0
    3.6042   -0.6167    0.0000 C   0  0  0  0  0  0  0  0  0  0  0  0
    4.2542   -0.2500    0.0000 C   0  0  0  0  0  0  0  0  0  0  0  0
    4.9042   -0.6250    0.0000 C   0  0  0  0  0  0  0  0  0  0  0  0
  2  6  1  0  0  0  0
  3  1  1  0  0  0  0
  4  1  1  0  0  0  0
  5 15  1  0  0  0  0
  6 12  1  0  0  0  0
  7  1  2  0  0  0  0
  8  2  1  0  0  0  0
  9  2  1  0  0  0  0
 10  4  1  0  0  0  0
 11 17  1  0  0  0  0
 11  6  2  0  0  0  0
 12 18  2  0  0  0  0
 13  3  1  0  0  0  0
 14  8  1  0  0  0  0
 14  5  1  0  0  0  0
 15  9  1  0  0  0  0
 16 10  2  0  0  0  0
 16 23  1  0  0  0  0
 17 13  2  0  0  0  0
 18 13  1  0  0  0  0
 19 16  1  0  0  0  0
 20  5  1  0  0  0  0
 21  4  2  0  0  0  0
 22 21  1  0  0  0  0
 23 22  2  0  0  0  0
M  END
>  <ID>
7650270

>  <Supplier>
ChemBridge

>  <clogP>
3.100000000000000e+000

>  <RB>
3

>  <tPSA>
3.558000000000000e+001

>  <Hacc>
2

>  <Hdon>
1

>  <LogSw>
-4.792000000000000e+000

>  <Group>
3

>  <Core>
162

$$$$
7650271
 OpenBabel03312015312D

 25 26  0  0  0  0  0  0  0  0999 V2000
   -0.7083   -1.0292    0.0000 C   0  0  0  0  0  0  0  0  0  0  0  0
   -0.0625   -1.4042    0.0000 C   0  0  0  0  0  0  0  0  0  0  0  0
   -0.7125   -0.2792    0.0000 C   0  0  0  0  0  0  0  0  0  0  0  0
   -1.3583   -1.4042    0.0000 O   0  0  0  0  0  0  0  0  0  0  0  0
   -3.3083   -4.7792    0.0000 C   0  0  0  0  0  0  0  0  0  0  0  0
   -2.6583   -4.4042    0.0000 C   0  0  0  0  0  0  0  0  0  0  0  0
   -2.0083   -2.5292    0.0000 C   0  0  0  0  0  0  0  0  0  0  0  0
   -2.0083   -3.2792    0.0000 N   0  0  0  0  0  0  0  0  0  0  0  0
   -2.6583   -3.6542    0.0000 C   0  0  0  0  0  0  0  0  0  0  0  0
    0.5875   -1.0292    0.0000 C   0  0  0  0  0  0  0  0  0  0  0  0
   -0.0625    0.0958    0.0000 C   0  0  0  0  0  0  0  0  0  0  0  0
    0.5875   -0.2792    0.0000 C   0  0  0  0  0  0  0  0  0  0  0  0
   -3.9583   -4.4042    0.0000 C   0  0  0  0  0  0  0  0  0  0  0  0
   -2.6500   -2.1542    0.0000 O   0  0  0  0  0  0  0  0  0  0  0  0
   -1.3583   -2.1542    0.0000 C   0  0  0  0  0  0  0  0  0  0  0  0
   -3.9583   -3.6542    0.0000 C   0  0  0  0  0  0  0  0  0  0  0  0
    1.8792   -0.2792    0.0000 O   0  0  0  0  0  0  0  0  0  0  0  0
   -0.0583   -2.1500    0.0000 Cl  0  0  0  0  0  0  0  0  0  0  0  0
    1.2292    0.0958    0.0000 C   0  0  0  0  0  0  0  0  0  0  0  0
   -3.3083   -5.5250    0.0000 Cl  0  0  0  0  0  0  0  0  0  0  0  0
   -3.3083   -3.2792    0.0000 C   0  0  0  0  0  0  0  0  0  0  0  0
   -1.3625    0.0958    0.0000 O   0  0  0  0  0  0  0  0  0  0  0  0
   -4.6083   -4.7792    0.0000 C   0  0  0  0  0  0  0  0  0  0  0  0
   -1.3625    0.8458    0.0000 C   0  0  0  0  0  0  0  0  0  0  0  0
   -2.0125    1.2208    0.0000 C   0  0  0  0  0  0  0  0  0  0  0  0
  2  1  2  0  0  0  0
  3  1  1  0  0  0  0
  4  1  1  0  0  0  0
  5  6  2  0  0  0  0
  5 13  1  0  0  0  0
  6  9  1  0  0  0  0
  7 15  1  0  0  0  0
  8  7  1  0  0  0  0
  9  8  1  0  0  0  0
 10  2  1  0  0  0  0
 10 12  2  0  0  0  0
 11  3  2  0  0  0  0
 12 11  1  0  0  0  0
 13 16  2  0  0  0  0
 14  7  2  0  0  0  0
 15  4  1  0  0  0  0
 16 21  1  0  0  0  0
 17 19  2  0  0  0  0
 18  2  1  0  0  0  0
 19 12  1  0  0  0  0
 20  5  1  0  0  0  0
 21  9  2  0  0  0  0
 22  3  1  0  0  0  0
 23 13  1  0  0  0  0
 24 22  1  0  0  0  0
 25 24  1  0  0  0  0
M  END
>  <ID>
7650271

>  <Supplier>
ChemBridge

>  <clogP>
4.563999999999997e+000

>  <RB>
5

>  <tPSA>
6.463000000000000e+001

>  <Hacc>
4

>  <Hdon>
1

>  <LogSw>
-5.776000000000002e+000

>  <Group>
1

>  <Core>
315

$$$$
7650273
 OpenBabel03312015312D

 20 23  0  0  0  0  0  0  0  0999 V2000
    4.0292   -0.4042    0.0000 N   0  0  0  0  0  0  0  0  0  0  0  0
    3.2750   -0.0792    0.0000 C   0  0  0  0  0  0  0  0  0  0  0  0
    2.5292   -0.5375    0.0000 C   0  0  3  0  0  0  0  0  0  0  0  0
    3.3500    0.7458    0.0000 N   0  0  0  0  0  0  0  0  0  0  0  0
    4.5750    0.2125    0.0000 C   0  0  0  0  0  0  0  0  0  0  0  0
    4.1542    0.9208    0.0000 N   0  0  0  0  0  0  0  0  0  0  0  0
    4.2417   -1.2042    0.0000 C   0  0  0  0  0  0  0  0  0  0  0  0
    1.6667   -0.4500    0.0000 C   0  0  0  0  0  0  0  0  0  0  0  0
    1.9042   -0.0875    0.0000 C   0  0  0  0  0  0  0  0  0  0  0  0
    2.6917   -1.3292    0.0000 C   0  0  0  0  0  0  0  0  0  0  0  0
    5.4000    0.2125    0.0000 S   0  0  0  0  0  0  0  0  0  0  0  0
    2.0167   -1.7875    0.0000 C   0  0  3  0  0  0  0  0  0  0  0  0
    1.2542   -0.5375    0.0000 C   0  0  3  0  0  0  0  0  0  0  0  0
    0.9667   -0.9292    0.0000 C   0  0  3  0  0  0  0  0  0  0  0  0
    0.3292   -0.3917    0.0000 C   0  0  0  0  0  0  0  0  0  0  0  0
    1.4417   -1.2750    0.0000 C   0  0  0  0  0  0  0  0  0  0  0  0
    1.1417   -1.7250    0.0000 C   0  0  0  0  0  0  0  0  0  0  0  0
    5.0375   -1.4167    0.0000 C   0  0  0  0  0  0  0  0  0  0  0  0
    5.0292   -2.2417    0.0000 C   0  0  0  0  0  0  0  0  0  0  0  0
    5.8292   -1.2000    0.0000 C   0  0  0  0  0  0  0  0  0  0  0  0
  2  1  1  0  0  0  0
  3  2  1  0  0  0  0
  4  2  2  0  0  0  0
  5  1  1  0  0  0  0
  6  5  1  0  0  0  0
  6  4  1  0  0  0  0
  7  1  1  0  0  0  0
  8  3  1  0  0  0  0
  9  3  1  0  0  0  0
 10  3  1  0  0  0  0
 11  5  2  0  0  0  0
 12 10  1  0  0  0  0
 13  9  1  0  0  0  0
 13 16  1  0  0  0  0
 14  8  1  0  0  0  0
 14 17  1  0  0  0  0
 14 15  1  0  0  0  0
 15 13  1  0  0  0  0
 16 12  1  0  0  0  0
 17 12  1  0  0  0  0
 18  7  1  0  0  0  0
 19 18  1  0  0  0  0
 20 18  1  0  0  0  0
M  END
>  <ID>
7650273

>  <Supplier>
ChemBridge

>  <clogP>
2.738000000000000e+000

>  <RB>
2

>  <tPSA>
3.361000000000000e+001

>  <Hacc>
1

>  <Hdon>
1

>  <LogSw>
-6.427000000000000e+000

>  <Group>
3

>  <Core>
029

$$$$
9135783
 OpenBabel03312015312D

 22 24  0  0  0  0  0  0  0  0999 V2000
    3.9792    1.0708    0.0000 C   0  0  0  0  0  0  0  0  0  0  0  0
    4.7000    0.8333    0.0000 C   0  0  0  0  0  0  0  0  0  0  0  0
    5.1375    1.4458    0.0000 N   0  0  0  0  0  0  0  0  0  0  0  0
    4.7000    2.0458    0.0000 N   0  0  0  0  0  0  0  0  0  0  0  0
    3.9792    1.8208    0.0000 N   0  0  0  0  0  0  0  0  0  0  0  0
    3.3792    0.6250    0.0000 C   0  0  0  0  0  0  0  0  0  0  0  0
    2.6917    0.9333    0.0000 N   0  0  0  0  0  0  0  0  0  0  0  0
    5.8875    1.4458    0.0000 C   0  0  0  0  0  0  0  0  0  0  0  0
    4.9292    0.1208    0.0000 N   0  0  0  0  0  0  0  0  0  0  0  0
    3.4542   -0.1167    0.0000 O   0  0  0  0  0  0  0  0  0  0  0  0
    6.2625    0.7958    0.0000 C   0  0  0  0  0  0  0  0  0  0  0  0
    6.2625    2.0958    0.0000 C   0  0  0  0  0  0  0  0  0  0  0  0
    2.0875    0.4875    0.0000 C   0  0  0  0  0  0  0  0  0  0  0  0
    7.0125    0.7958    0.0000 C   0  0  0  0  0  0  0  0  0  0  0  0
    7.0125    2.0958    0.0000 C   0  0  0  0  0  0  0  0  0  0  0  0
    7.3875    1.4458    0.0000 C   0  0  0  0  0  0  0  0  0  0  0  0
    8.1375    1.4458    0.0000 C   0  0  0  0  0  0  0  0  0  0  0  0
    1.4000    0.7958    0.0000 C   0  0  0  0  0  0  0  0  0  0  0  0
    2.1625   -0.2542    0.0000 C   0  0  0  0  0  0  0  0  0  0  0  0
    1.5542   -0.6917    0.0000 C   0  0  0  0  0  0  0  0  0  0  0  0
    0.7917    0.3583    0.0000 C   0  0  0  0  0  0  0  0  0  0  0  0
    0.8667   -0.3917    0.0000 C   0  0  0  0  0  0  0  0  0  0  0  0
  2  1  2  0  0  0  0
  3  2  1  0  0  0  0
  4  5  2  0  0  0  0
  4  3  1  0  0  0  0
  5  1  1  0  0  0  0
  6  1  1  0  0  0  0
  7  6  1  0  0  0  0
  8  3  1  0  0  0  0
  9  2  1  0  0  0  0
 10  6  2  0  0  0  0
 11  8  2  0  0  0  0
 12  8  1  0  0  0  0
 13  7  1  0  0  0  0
 14 11  1  0  0  0  0
 14 16  2  0  0  0  0
 15 12  2  0  0  0  0
 16 15  1  0  0  0  0
 17 16  1  0  0  0  0
 18 13  1  0  0  0  0
 19 13  1  0  0  0  0
 20 19  1  0  0  0  0
 21 18  1  0  0  0  0
 21 22  1  0  0  0  0
 22 20  1  0  0  0  0
M  END
>  <ID>
9135783

>  <Supplier>
ChemBridge

>  <clogP>
2.885000000000000e+000

>  <RB>
3

>  <tPSA>
8.583000000000000e+001

>  <Hacc>
3

>  <Hdon>
2

>  <LogSw>
-3.847000000000000e+000

>  <Group>
2

$$$$
5998346
 OpenBabel03312015312D

 31 33  0  0  0  0  0  0  0  0999 V2000
    5.7375   -4.8417    0.0000 S   0  0  0  0  0  0  0  0  0  0  0  0
    5.7375   -4.0167    0.0000 N   0  0  0  0  0  0  0  0  0  0  0  0
    5.0167   -3.6042    0.0000 C   0  0  0  0  0  0  0  0  0  0  0  0
    6.4500   -3.6000    0.0000 C   0  0  0  0  0  0  0  0  0  0  0  0
    7.1667   -4.0042    0.0000 C   0  0  0  0  0  0  0  0  0  0  0  0
    6.1417   -5.5542    0.0000 O   0  0  0  0  0  0  0  0  0  0  0  0
    6.5292   -5.0542    0.0000 O   0  0  0  0  0  0  0  0  0  0  0  0
    5.0250   -5.2542    0.0000 C   0  0  0  0  0  0  0  0  0  0  0  0
    7.8792   -3.6000    0.0000 N   0  0  0  0  0  0  0  0  0  0  0  0
    4.3042   -4.0167    0.0000 C   0  0  0  0  0  0  0  0  0  0  0  0
    5.0167   -2.7750    0.0000 C   0  0  0  0  0  0  0  0  0  0  0  0
    7.1667   -4.8375    0.0000 O   0  0  0  0  0  0  0  0  0  0  0  0
    4.3042   -2.3625    0.0000 C   0  0  0  0  0  0  0  0  0  0  0  0
    3.5917   -3.6042    0.0000 C   0  0  0  0  0  0  0  0  0  0  0  0
    8.5917   -4.0042    0.0000 C   0  0  0  0  0  0  0  0  0  0  0  0
    3.5917   -2.7750    0.0000 C   0  0  0  0  0  0  0  0  0  0  0  0
   10.0167   -4.8417    0.0000 C   0  0  0  0  0  0  0  0  0  0  0  0
    8.5917   -4.8417    0.0000 C   0  0  0  0  0  0  0  0  0  0  0  0
    9.3042   -3.6000    0.0000 C   0  0  0  0  0  0  0  0  0  0  0  0
    9.3000   -5.2542    0.0000 C   0  0  0  0  0  0  0  0  0  0  0  0
   10.0167   -4.0167    0.0000 C   0  0  0  0  0  0  0  0  0  0  0  0
   10.7375   -5.2542    0.0000 O   0  0  0  0  0  0  0  0  0  0  0  0
    4.3125   -4.8375    0.0000 C   0  0  0  0  0  0  0  0  0  0  0  0
    5.0292   -6.0750    0.0000 C   0  0  0  0  0  0  0  0  0  0  0  0
    4.3000   -1.5375    0.0000 C   0  0  0  0  0  0  0  0  0  0  0  0
    2.8750   -4.0167    0.0000 C   0  0  0  0  0  0  0  0  0  0  0  0
   11.4500   -4.8500    0.0000 C   0  0  0  0  0  0  0  0  0  0  0  0
   12.1667   -5.2625    0.0000 C   0  0  0  0  0  0  0  0  0  0  0  0
    4.3167   -6.4875    0.0000 C   0  0  0  0  0  0  0  0  0  0  0  0
    3.6000   -5.2500    0.0000 C   0  0  0  0  0  0  0  0  0  0  0  0
    3.6000   -6.0792    0.0000 C   0  0  0  0  0  0  0  0  0  0  0  0
  2  1  1  0  0  0  0
  3  2  1  0  0  0  0
  4  2  1  0  0  0  0
  5  4  1  0  0  0  0
  6  1  2  0  0  0  0
  7  1  2  0  0  0  0
  8  1  1  0  0  0  0
  9  5  1  0  0  0  0
 10  3  2  0  0  0  0
 11  3  1  0  0  0  0
 12  5  2  0  0  0  0
 13 11  2  0  0  0  0
 14 10  1  0  0  0  0
 14 16  2  0  0  0  0
 15  9  1  0  0  0  0
 16 13  1  0  0  0  0
 17 21  1  0  0  0  0
 18 15  2  0  0  0  0
 19 15  1  0  0  0  0
 20 18  1  0  0  0  0
 20 17  2  0  0  0  0
 21 19  2  0  0  0  0
 22 17  1  0  0  0  0
 23  8  2  0  0  0  0
 24  8  1  0  0  0  0
 25 13  1  0  0  0  0
 26 14  1  0  0  0  0
 27 22  1  0  0  0  0
 28 27  1  0  0  0  0
 29 24  2  0  0  0  0
 30 23  1  0  0  0  0
 31 29  1  0  0  0  0
 31 30  2  0  0  0  0
M  END
>  <ID>
5998346

>  <Supplier>
ChemBridge

>  <clogP>
5.350000000000000e+000

>  <RB>
5

>  <tPSA>
7.570999999999999e+001

>  <Hacc>
4

>  <Hdon>
1

>  <LogSw>
-6.966000000000000e+000

>  <Group>
2

>  <Core>
084

$$$$
5537252
 OpenBabel03312015312D

 25 26  0  0  0  0  0  0  0  0999 V2000
   -0.4833    0.4500    0.0000 C   0  0  0  0  0  0  0  0  0  0  0  0
   -1.3625    0.4500    0.0000 C   0  0  0  0  0  0  0  0  0  0  0  0
   -1.7500    1.2208    0.0000 N   0  0  0  0  0  0  0  0  0  0  0  0
    4.5875   -1.1500    0.0000 C   0  0  0  0  0  0  0  0  0  0  0  0
   -2.6125    1.2500    0.0000 C   0  0  0  0  0  0  0  0  0  0  0  0
    0.7667   -0.3042    0.0000 N   0  0  0  0  0  0  0  0  0  0  0  0
   -0.0833   -0.2875    0.0000 N   0  0  0  0  0  0  0  0  0  0  0  0
    3.7500   -1.1375    0.0000 C   0  0  0  0  0  0  0  0  0  0  0  0
   -0.0458    1.1833    0.0000 O   0  0  0  0  0  0  0  0  0  0  0  0
   -1.8000   -0.2792    0.0000 O   0  0  0  0  0  0  0  0  0  0  0  0
    5.0167   -0.4042    0.0000 O   0  0  0  0  0  0  0  0  0  0  0  0
   -3.0125    2.0000    0.0000 C   0  0  0  0  0  0  0  0  0  0  0  0
    3.2875   -1.8542    0.0000 C   0  0  0  0  0  0  0  0  0  0  0  0
    3.3292   -0.4000    0.0000 C   0  0  0  0  0  0  0  0  0  0  0  0
    1.1792   -1.0542    0.0000 C   0  0  0  0  0  0  0  0  0  0  0  0
    4.9375   -1.9000    0.0000 O   0  0  0  0  0  0  0  0  0  0  0  0
    2.0292   -1.0875    0.0000 C   0  0  0  0  0  0  0  0  0  0  0  0
    2.4875   -0.3667    0.0000 C   0  0  0  0  0  0  0  0  0  0  0  0
    2.4375   -1.8292    0.0000 C   0  0  0  0  0  0  0  0  0  0  0  0
   -2.5708    2.7125    0.0000 O   0  0  0  0  0  0  0  0  0  0  0  0
   -3.0708    0.5458    0.0000 C   0  0  0  0  0  0  0  0  0  0  0  0
   -3.8500    2.0458    0.0000 C   0  0  0  0  0  0  0  0  0  0  0  0
   -1.7333    2.6958    0.0000 C   0  0  0  0  0  0  0  0  0  0  0  0
   -3.9125    0.5833    0.0000 C   0  0  0  0  0  0  0  0  0  0  0  0
   -4.3333    1.3208    0.0000 C   0  0  0  0  0  0  0  0  0  0  0  0
  2  1  1  0  0  0  0
  3  2  1  0  0  0  0
  4  8  1  0  0  0  0
  5  3  1  0  0  0  0
  6  7  1  0  0  0  0
  7  1  1  0  0  0  0
  8 13  2  0  0  0  0
  8 14  1  0  0  0  0
  9  1  2  0  0  0  0
 10  2  2  0  0  0  0
 11  4  2  0  0  0  0
 12  5  2  0  0  0  0
 13 19  1  0  0  0  0
 14 18  2  0  0  0  0
 15  6  2  0  0  0  0
 16  4  1  0  0  0  0
 17 15  1  0  0  0  0
 18 17  1  0  0  0  0
 19 17  2  0  0  0  0
 20 12  1  0  0  0  0
 21  5  1  0  0  0  0
 22 12  1  0  0  0  0
 22 25  2  0  0  0  0
 23 20  1  0  0  0  0
 24 21  2  0  0  0  0
 25 24  1  0  0  0  0
M  END
>  <ID>
5537252

>  <Supplier>
ChemBridge

>  <clogP>
3.370000000000000e+000

>  <RB>
5

>  <tPSA>
1.170900000000000e+002

>  <Hacc>
6

>  <Hdon>
3

>  <LogSw>
-4.566999999999998e+000

>  <Group>
3

>  <Core>
188

$$$$
6692146
 OpenBabel03312015312D

 22 24  0  0  0  0  0  0  0  0999 V2000
    1.5667   -0.8042    0.0000 C   0  0  0  0  0  0  0  0  0  0  0  0
    0.8875   -0.4167    0.0000 N   0  0  0  0  0  0  0  0  0  0  0  0
   -1.2333    0.8125    0.0000 C   0  0  0  0  0  0  0  0  0  0  0  0
   -0.5125    0.3958    0.0000 N   0  0  0  0  0  0  0  0  0  0  0  0
    2.2667   -0.4167    0.0000 N   0  0  0  0  0  0  0  0  0  0  0  0
    1.5667   -1.6167    0.0000 S   0  0  0  0  0  0  0  0  0  0  0  0
   -1.9125    0.3958    0.0000 C   0  0  3  0  0  0  0  0  0  0  0  0
    0.8875    0.3958    0.0000 C   0  0  0  0  0  0  0  0  0  0  0  0
    0.1875   -0.8042    0.0000 C   0  0  0  0  0  0  0  0  0  0  0  0
   -0.5125   -0.4167    0.0000 C   0  0  0  0  0  0  0  0  0  0  0  0
    0.1875    0.7833    0.0000 C   0  0  0  0  0  0  0  0  0  0  0  0
   -1.2333    1.5958    0.0000 O   0  0  0  0  0  0  0  0  0  0  0  0
   -2.6708    0.6333    0.0000 O   0  0  0  0  0  0  0  0  0  0  0  0
    2.2667    0.3625    0.0000 C   0  0  0  0  0  0  0  0  0  0  0  0
   -3.1333    0.0000    0.0000 C   0  0  0  0  0  0  0  0  0  0  0  0
   -1.9125   -0.3875    0.0000 C   0  0  0  0  0  0  0  0  0  0  0  0
    1.5667    0.7833    0.0000 C   0  0  0  0  0  0  0  0  0  0  0  0
    2.9667    0.7833    0.0000 C   0  0  0  0  0  0  0  0  0  0  0  0
   -2.6708   -0.6292    0.0000 C   0  0  0  0  0  0  0  0  0  0  0  0
    2.9667    1.5625    0.0000 C   0  0  0  0  0  0  0  0  0  0  0  0
    1.5667    1.5625    0.0000 C   0  0  0  0  0  0  0  0  0  0  0  0
    2.2667    1.9833    0.0000 C   0  0  0  0  0  0  0  0  0  0  0  0
  2  1  1  0  0  0  0
  3  4  1  0  0  0  0
  4 10  1  0  0  0  0
  4 11  1  0  0  0  0
  5  1  1  0  0  0  0
  6  1  2  0  0  0  0
  7  3  1  0  0  0  0
  8  2  1  0  0  0  0
  9  2  1  0  0  0  0
 10  9  1  0  0  0  0
 11  8  1  0  0  0  0
 12  3  2  0  0  0  0
 13  7  1  0  0  0  0
 14  5  1  0  0  0  0
 15 13  1  0  0  0  0
 16  7  1  0  0  0  0
 17 14  2  0  0  0  0
 18 14  1  0  0  0  0
 19 16  1  0  0  0  0
 19 15  1  0  0  0  0
 20 18  2  0  0  0  0
 21 17  1  0  0  0  0
 21 22  2  0  0  0  0
 22 20  1  0  0  0  0
M  END
>  <ID>
6692146

>  <Supplier>
ChemBridge

>  <clogP>
2.100000000000000e+000

>  <RB>
2

>  <tPSA>
4.481000000000002e+001

>  <Hacc>
2

>  <Hdon>
1

>  <LogSw>
-3.323000000000000e+000

>  <Group>
3

>  <Core>
169

$$$$
5524554
 OpenBabel03312015312D

 19 20  0  0  0  0  0  0  0  0999 V2000
   12.8292    0.7500    0.0000 C   0  0  0  0  0  0  0  0  0  0  0  0
   12.0792    0.7500    0.0000 C   0  0  0  0  0  0  0  0  0  0  0  0
   13.2042    0.0125    0.0000 N   0  0  0  0  0  0  0  0  0  0  0  0
   13.9542    0.0125    0.0000 C   0  0  0  0  0  0  0  0  0  0  0  0
   14.3292   -0.6167    0.0000 C   0  0  0  0  0  0  0  0  0  0  0  0
   11.7042    0.1000    0.0000 C   0  0  0  0  0  0  0  0  0  0  0  0
   13.2000    1.4000    0.0000 O   0  0  0  0  0  0  0  0  0  0  0  0
   13.9542   -1.2667    0.0000 C   0  0  0  0  0  0  0  0  0  0  0  0
   12.0792   -0.5375    0.0000 F   0  0  0  0  0  0  0  0  0  0  0  0
   11.7042    1.4000    0.0000 C   0  0  0  0  0  0  0  0  0  0  0  0
   14.3292    0.6625    0.0000 C   0  0  0  0  0  0  0  0  0  0  0  0
   15.0792   -0.6167    0.0000 C   0  0  0  0  0  0  0  0  0  0  0  0
   10.9542    0.1125    0.0000 C   0  0  0  0  0  0  0  0  0  0  0  0
   13.2042   -1.2667    0.0000 C   0  0  0  0  0  0  0  0  0  0  0  0
   14.3292   -1.9167    0.0000 C   0  0  0  0  0  0  0  0  0  0  0  0
   10.9542    1.4125    0.0000 C   0  0  0  0  0  0  0  0  0  0  0  0
   15.0792    0.6625    0.0000 C   0  0  0  0  0  0  0  0  0  0  0  0
   15.4542    0.0125    0.0000 C   0  0  0  0  0  0  0  0  0  0  0  0
   10.5792    0.7625    0.0000 C   0  0  0  0  0  0  0  0  0  0  0  0
  2  1  1  0  0  0  0
  3  1  1  0  0  0  0
  4  3  1  0  0  0  0
  5  4  1  0  0  0  0
  6  2  1  0  0  0  0
  7  1  2  0  0  0  0
  8  5  1  0  0  0  0
  9  6  1  0  0  0  0
 10  2  2  0  0  0  0
 11  4  2  0  0  0  0
 12  5  2  0  0  0  0
 12 18  1  0  0  0  0
 13  6  2  0  0  0  0
 13 19  1  0  0  0  0
 14  8  1  0  0  0  0
 15  8  1  0  0  0  0
 16 10  1  0  0  0  0
 17 11  1  0  0  0  0
 18 17  2  0  0  0  0
 19 16  2  0  0  0  0
M  END
>  <ID>
5524554

>  <Supplier>
ChemBridge

>  <clogP>
3.110000000000000e+000

>  <RB>
2

>  <tPSA>
2.910000000000000e+001

>  <Hacc>
1

>  <Hdon>
1

>  <LogSw>
-3.733000000000000e+000

>  <Group>
3

>  <Core>
511

$$$$
9076586
 OpenBabel03312015312D

 28 31  0  0  0  0  0  0  0  0999 V2000
    3.7292    1.8000    0.0000 N   0  0  0  0  0  0  0  0  0  0  0  0
    3.2875    1.1958    0.0000 C   0  0  0  0  0  0  0  0  0  0  0  0
    7.6292    2.2833    0.0000 C   0  0  0  0  0  0  0  0  0  0  0  0
    3.7292    0.5875    0.0000 N   0  0  0  0  0  0  0  0  0  0  0  0
    4.4417    1.5708    0.0000 C   0  0  0  0  0  0  0  0  0  0  0  0
    4.4417    0.8208    0.0000 N   0  0  0  0  0  0  0  0  0  0  0  0
    8.3417    2.0500    0.0000 N   0  0  0  0  0  0  0  0  0  0  0  0
    7.6292    3.0333    0.0000 S   0  0  0  0  0  0  0  0  0  0  0  0
    7.0250    1.8458    0.0000 N   0  0  0  0  0  0  0  0  0  0  0  0
    8.7875    2.6583    0.0000 C   0  0  0  0  0  0  0  0  0  0  0  0
    8.3417    3.2708    0.0000 C   0  0  0  0  0  0  0  0  0  0  0  0
    2.5375    1.1958    0.0000 C   0  0  0  0  0  0  0  0  0  0  0  0
    5.0500    2.0208    0.0000 S   0  0  0  0  0  0  0  0  0  0  0  0
    1.4125    1.8458    0.0000 C   0  0  0  0  0  0  0  0  0  0  0  0
    6.3417    2.1458    0.0000 C   0  0  0  0  0  0  0  0  0  0  0  0
    2.1625    1.8458    0.0000 C   0  0  0  0  0  0  0  0  0  0  0  0
    1.0375    1.1958    0.0000 C   0  0  0  0  0  0  0  0  0  0  0  0
    0.9125    2.4000    0.0000 O   0  0  0  0  0  0  0  0  0  0  0  0
    0.3042    1.3500    0.0000 O   0  0  0  0  0  0  0  0  0  0  0  0
    0.2250    2.0958    0.0000 C   0  0  0  0  0  0  0  0  0  0  0  0
    2.1625    0.5458    0.0000 C   0  0  0  0  0  0  0  0  0  0  0  0
    6.2625    2.8958    0.0000 O   0  0  0  0  0  0  0  0  0  0  0  0
    1.4125    0.5458    0.0000 C   0  0  0  0  0  0  0  0  0  0  0  0
    5.7292    1.7083    0.0000 C   0  0  0  0  0  0  0  0  0  0  0  0
    3.4917    2.5208    0.0000 C   0  0  0  0  0  0  0  0  0  0  0  0
    9.5375    2.6583    0.0000 C   0  0  0  0  0  0  0  0  0  0  0  0
    8.5792    3.9833    0.0000 C   0  0  0  0  0  0  0  0  0  0  0  0
    4.0000    3.0708    0.0000 C   0  0  0  0  0  0  0  0  0  0  0  0
  2  1  1  0  0  0  0
  3  9  1  0  0  0  0
  4  2  2  0  0  0  0
  5  1  1  0  0  0  0
  6  5  2  0  0  0  0
  6  4  1  0  0  0  0
  7  3  2  0  0  0  0
  8  3  1  0  0  0  0
  9 15  1  0  0  0  0
 10  7  1  0  0  0  0
 10 11  2  0  0  0  0
 11  8  1  0  0  0  0
 12  2  1  0  0  0  0
 13  5  1  0  0  0  0
 14 16  2  0  0  0  0
 14 17  1  0  0  0  0
 15 24  1  0  0  0  0
 16 12  1  0  0  0  0
 17 23  2  0  0  0  0
 18 14  1  0  0  0  0
 19 17  1  0  0  0  0
 19 20  1  0  0  0  0
 20 18  1  0  0  0  0
 21 12  2  0  0  0  0
 22 15  2  0  0  0  0
 23 21  1  0  0  0  0
 24 13  1  0  0  0  0
 25  1  1  0  0  0  0
 26 10  1  0  0  0  0
 27 11  1  0  0  0  0
 28 25  1  0  0  0  0
M  END
>  <ID>
9076586

>  <Supplier>
ChemBridge

>  <clogP>
2.635000000000000e+000

>  <RB>
5

>  <tPSA>
9.116000000000000e+001

>  <Hacc>
6

>  <Hdon>
1

>  <LogSw>
-4.494000000000000e+000

>  <Group>
2

>  <Core>
550

$$$$
6860442
 OpenBabel03312015312D

 26 29  0  0  0  0  0  0  0  0999 V2000
    2.8750    0.9500    0.0000 N   0  0  0  0  0  0  0  0  0  0  0  0
    2.6167    0.1625    0.0000 C   0  0  0  0  0  0  0  0  0  0  0  0
    2.2042    1.4333    0.0000 C   0  0  0  0  0  0  0  0  0  0  0  0
    1.5417    0.9500    0.0000 C   0  0  0  0  0  0  0  0  0  0  0  0
    1.7917    0.1625    0.0000 S   0  0  0  0  0  0  0  0  0  0  0  0
    0.1375    0.6500    0.0000 C   0  0  0  0  0  0  0  0  0  0  0  0
    0.7542    1.2083    0.0000 C   0  0  0  0  0  0  0  0  0  0  0  0
   -0.5833    1.0708    0.0000 C   0  0  0  0  0  0  0  0  0  0  0  0
   -0.5833   -0.5917    0.0000 O   0  0  0  0  0  0  0  0  0  0  0  0
    0.1375   -0.1792    0.0000 C   0  0  3  0  0  0  0  0  0  0  0  0
   -1.2958   -0.1792    0.0000 C   0  0  0  0  0  0  0  0  0  0  0  0
    3.6625    1.2083    0.0000 C   0  0  0  0  0  0  0  0  0  0  0  0
   -1.2958    0.6458    0.0000 C   0  0  0  0  0  0  0  0  0  0  0  0
    3.1042   -0.5042    0.0000 S   0  0  0  0  0  0  0  0  0  0  0  0
    2.2042    2.2583    0.0000 O   0  0  0  0  0  0  0  0  0  0  0  0
    4.2667    0.6500    0.0000 C   0  0  0  0  0  0  0  0  0  0  0  0
   -2.0125   -0.5917    0.0000 C   0  0  0  0  0  0  0  0  0  0  0  0
   -2.0083    1.0583    0.0000 C   0  0  0  0  0  0  0  0  0  0  0  0
    0.8542   -0.5875    0.0000 C   0  0  0  0  0  0  0  0  0  0  0  0
    5.0542    0.9083    0.0000 C   0  0  0  0  0  0  0  0  0  0  0  0
    4.0917   -0.1542    0.0000 C   0  0  0  0  0  0  0  0  0  0  0  0
   -2.7250   -0.1792    0.0000 C   0  0  0  0  0  0  0  0  0  0  0  0
   -2.7208    0.6458    0.0000 C   0  0  0  0  0  0  0  0  0  0  0  0
    4.7042   -0.7042    0.0000 C   0  0  0  0  0  0  0  0  0  0  0  0
    5.6667    0.3583    0.0000 C   0  0  0  0  0  0  0  0  0  0  0  0
    5.4917   -0.4542    0.0000 C   0  0  0  0  0  0  0  0  0  0  0  0
  2  1  1  0  0  0  0
  3  1  1  0  0  0  0
  4  3  1  0  0  0  0
  4  5  1  0  0  0  0
  5  2  1  0  0  0  0
  6  7  1  0  0  0  0
  7  4  2  0  0  0  0
  8  6  2  0  0  0  0
  9 10  1  0  0  0  0
 10  6  1  0  0  0  0
 11  9  1  0  0  0  0
 11 13  1  0  0  0  0
 12  1  1  0  0  0  0
 13  8  1  0  0  0  0
 14  2  2  0  0  0  0
 15  3  2  0  0  0  0
 16 12  1  0  0  0  0
 17 11  2  0  0  0  0
 18 13  2  0  0  0  0
 19 10  1  0  0  0  0
 20 16  1  0  0  0  0
 21 16  2  0  0  0  0
 22 17  1  0  0  0  0
 22 23  2  0  0  0  0
 23 18  1  0  0  0  0
 24 21  1  0  0  0  0
 25 20  2  0  0  0  0
 26 24  2  0  0  0  0
 26 25  1  0  0  0  0
M  END
>  <ID>
6860442

>  <Supplier>
ChemBridge

>  <clogP>
3.820000000000000e+000

>  <RB>
3

>  <tPSA>
2.954000000000000e+001

>  <Hacc>
2

>  <Hdon>
0

>  <LogSw>
-5.229000000000000e+000

>  <Group>
2

>  <Core>
001

$$$$
7117901
 OpenBabel03312015312D

 30 33  0  0  0  0  0  0  0  0999 V2000
   -7.3375    3.7708    0.0000 C   0  0  0  0  0  0  0  0  0  0  0  0
  -10.2042    8.6792    0.0000 O   0  0  0  0  0  0  0  0  0  0  0  0
   -5.9083    6.2167    0.0000 C   0  0  0  0  0  0  0  0  0  0  0  0
  -10.2042    3.7708    0.0000 C   0  0  0  0  0  0  0  0  0  0  0  0
  -11.6792    6.2167    0.0000 C   0  0  0  0  0  0  0  0  0  0  0  0
   -7.3375    8.6792    0.0000 C   0  0  0  0  0  0  0  0  0  0  0  0
   -5.8458    1.2125    0.0000 C   0  0  0  0  0  0  0  0  0  0  0  0
   -2.9708    1.2125    0.0000 C   0  0  0  0  0  0  0  0  0  0  0  0
    9.9875   -6.2167    0.0000 C   0  0  0  0  0  0  0  0  0  0  0  0
    7.1167   -6.2167    0.0000 C   0  0  0  0  0  0  0  0  0  0  0  0
   -1.5333    3.6708    0.0000 O   0  0  0  0  0  0  0  0  0  0  0  0
   -1.5333   -1.2042    0.0000 N   0  0  0  0  0  0  0  0  0  0  0  0
   11.4292   -3.7542    0.0000 C   0  0  0  0  0  0  0  0  0  0  0  0
    5.6792   -3.7542    0.0000 O   0  0  0  0  0  0  0  0  0  0  0  0
   -3.0333    6.2167    0.0000 C   0  0  0  0  0  0  0  0  0  0  0  0
  -11.6792    1.2125    0.0000 C   0  0  0  0  0  0  0  0  0  0  0  0
   -5.9083   11.2375    0.0000 C   0  0  0  0  0  0  0  0  0  0  0  0
  -14.5542    6.2167    0.0000 C   0  0  0  0  0  0  0  0  0  0  0  0
   11.4292   -8.6792    0.0000 C   0  0  0  0  0  0  0  0  0  0  0  0
    5.6792   -8.6792    0.0000 C   0  0  0  0  0  0  0  0  0  0  0  0
    1.3667   -1.2042    0.0000 C   0  0  0  0  0  0  0  0  0  0  0  0
   10.0542   -1.2667    0.0000 C   0  0  0  0  0  0  0  0  0  0  0  0
   14.3000   -3.8000    0.0000 C   0  0  0  0  0  0  0  0  0  0  0  0
    2.8042   -3.7542    0.0000 C   0  0  0  0  0  0  0  0  0  0  0  0
  -14.5542    1.2125    0.0000 C   0  0  0  0  0  0  0  0  0  0  0  0
   -1.5333    8.6792    0.0000 C   0  0  0  0  0  0  0  0  0  0  0  0
   -3.0333   11.2375    0.0000 C   0  0  0  0  0  0  0  0  0  0  0  0
  -16.0000    3.7708    0.0000 C   0  0  0  0  0  0  0  0  0  0  0  0
    9.9875  -11.2375    0.0000 C   0  0  0  0  0  0  0  0  0  0  0  0
    7.1167  -11.2375    0.0000 C   0  0  0  0  0  0  0  0  0  0  0  0
  2  5  1  0  0  0  0
  3  1  1  0  0  0  0
  4  1  1  0  0  0  0
  5  4  2  0  0  0  0
  6  3  2  0  0  0  0
  6  2  1  0  0  0  0
  7  1  1  0  0  0  0
  8  7  1  0  0  0  0
  9 10  2  0  0  0  0
 10 14  1  0  0  0  0
 11  8  2  0  0  0  0
 12  8  1  0  0  0  0
 13  9  1  0  0  0  0
 14 24  1  0  0  0  0
 15  3  1  0  0  0  0
 16  4  1  0  0  0  0
 17  6  1  0  0  0  0
 17 27  2  0  0  0  0
 18  5  1  0  0  0  0
 19  9  1  0  0  0  0
 19 29  2  0  0  0  0
 20 10  1  0  0  0  0
 21 12  1  0  0  0  0
 22 13  1  0  0  0  0
 23 13  1  0  0  0  0
 24 21  1  0  0  0  0
 25 16  2  0  0  0  0
 26 15  2  0  0  0  0
 27 26  1  0  0  0  0
 28 25  1  0  0  0  0
 28 18  2  0  0  0  0
 29 30  1  0  0  0  0
 30 20  2  0  0  0  0
M  END
>  <ID>
7117901

>  <Supplier>
ChemBridge

>  <clogP>
6.030000000000000e+000

>  <RB>
6

>  <tPSA>
4.756000000000000e+001

>  <Hacc>
3

>  <Hdon>
1

>  <LogSw>
-8.387000000000002e+000

>  <Group>
1

>  <Core>
523

$$$$
7417756
 OpenBabel03312015312D

 30 32  0  0  0  0  0  0  0  0999 V2000
    4.3500   -2.2292    0.0000 C   0  0  0  0  0  0  0  0  0  0  0  0
    5.0625   -1.8167    0.0000 C   0  0  0  0  0  0  0  0  0  0  0  0
    4.0750   -0.9250    0.0000 C   0  0  0  0  0  0  0  0  0  0  0  0
    3.7292   -1.6792    0.0000 S   0  0  0  0  0  0  0  0  0  0  0  0
    4.8917   -1.0042    0.0000 C   0  0  0  0  0  0  0  0  0  0  0  0
    4.2625   -3.0500    0.0000 N   0  0  0  0  0  0  0  0  0  0  0  0
    3.5042   -3.3875    0.0000 C   0  0  0  0  0  0  0  0  0  0  0  0
    5.8167   -2.1542    0.0000 C   0  0  0  0  0  0  0  0  0  0  0  0
    3.6625   -0.2125    0.0000 C   0  0  0  0  0  0  0  0  0  0  0  0
    3.4167   -4.2042    0.0000 C   0  0  0  0  0  0  0  0  0  0  0  0
    5.4417   -0.3917    0.0000 O   0  0  0  0  0  0  0  0  0  0  0  0
    2.8417   -2.9000    0.0000 O   0  0  0  0  0  0  0  0  0  0  0  0
    5.9042   -2.9750    0.0000 O   0  0  0  0  0  0  0  0  0  0  0  0
    2.8375   -0.2167    0.0000 C   0  0  0  0  0  0  0  0  0  0  0  0
    2.6667   -4.5292    0.0000 C   0  0  0  0  0  0  0  0  0  0  0  0
    4.0917   -4.6792    0.0000 C   0  0  0  0  0  0  0  0  0  0  0  0
    6.4792   -1.6667    0.0000 O   0  0  0  0  0  0  0  0  0  0  0  0
    1.1917   -0.2167    0.0000 C   0  0  0  0  0  0  0  0  0  0  0  0
    3.2417   -5.8417    0.0000 C   0  0  0  0  0  0  0  0  0  0  0  0
    4.0000   -5.5042    0.0000 C   0  0  0  0  0  0  0  0  0  0  0  0
    2.5792   -5.3500    0.0000 C   0  0  0  0  0  0  0  0  0  0  0  0
    0.3792   -0.2292    0.0000 F   0  0  0  0  0  0  0  0  0  0  0  0
    2.4292   -0.9292    0.0000 C   0  0  0  0  0  0  0  0  0  0  0  0
    2.4250    0.4958    0.0000 C   0  0  0  0  0  0  0  0  0  0  0  0
    1.6125   -0.9375    0.0000 C   0  0  0  0  0  0  0  0  0  0  0  0
    1.6042    0.4875    0.0000 C   0  0  0  0  0  0  0  0  0  0  0  0
    3.1542   -6.6542    0.0000 O   0  0  0  0  0  0  0  0  0  0  0  0
    7.2375   -2.0042    0.0000 C   0  0  0  0  0  0  0  0  0  0  0  0
    3.8167   -7.1417    0.0000 C   0  0  0  0  0  0  0  0  0  0  0  0
    7.9042   -1.5167    0.0000 C   0  0  0  0  0  0  0  0  0  0  0  0
  2  1  2  0  0  0  0
  3  4  1  0  0  0  0
  4  1  1  0  0  0  0
  5  2  1  0  0  0  0
  5  3  1  0  0  0  0
  6  1  1  0  0  0  0
  7  6  1  0  0  0  0
  8  2  1  0  0  0  0
  9  3  2  0  0  0  0
 10  7  1  0  0  0  0
 11  5  2  0  0  0  0
 12  7  2  0  0  0  0
 13  8  2  0  0  0  0
 14  9  1  0  0  0  0
 15 10  2  0  0  0  0
 16 10  1  0  0  0  0
 17  8  1  0  0  0  0
 18 26  2  0  0  0  0
 18 25  1  0  0  0  0
 19 20  1  0  0  0  0
 20 16  2  0  0  0  0
 21 15  1  0  0  0  0
 21 19  2  0  0  0  0
 22 18  1  0  0  0  0
 23 14  1  0  0  0  0
 24 14  2  0  0  0  0
 25 23  2  0  0  0  0
 26 24  1  0  0  0  0
 27 19  1  0  0  0  0
 28 17  1  0  0  0  0
 29 27  1  0  0  0  0
 30 28  1  0  0  0  0
M  END
>  <ID>
7417756

>  <Supplier>
ChemBridge

>  <clogP>
3.826000000000000e+000

>  <RB>
4

>  <tPSA>
8.170000000000000e+001

>  <Hacc>
5

>  <Hdon>
1

>  <LogSw>
-5.521999999999999e+000

>  <Group>
2

>  <Core>
286

$$$$
5757320
 OpenBabel03312015312D

 23 24  0  0  0  0  0  0  0  0999 V2000
    1.5500   -0.0292    0.0000 C   0  0  0  0  0  0  0  0  0  0  0  0
    0.8375    0.3708    0.0000 C   0  0  0  0  0  0  0  0  0  0  0  0
    4.4042   -0.0167    0.0000 N   0  0  0  0  0  0  0  0  0  0  0  0
    3.7000    0.3833    0.0000 C   0  0  0  0  0  0  0  0  0  0  0  0
    5.1167   -0.4375    0.0000 C   0  0  0  0  0  0  0  0  0  0  0  0
    0.1167   -0.0292    0.0000 C   0  0  0  0  0  0  0  0  0  0  0  0
    0.8292    1.1958    0.0000 C   0  0  0  0  0  0  0  0  0  0  0  0
    2.2542    0.3708    0.0000 O   0  0  0  0  0  0  0  0  0  0  0  0
    1.5500   -0.8542    0.0000 C   0  0  0  0  0  0  0  0  0  0  0  0
    5.8375   -0.0167    0.0000 C   0  0  0  0  0  0  0  0  0  0  0  0
    3.6875    1.2000    0.0000 O   0  0  0  0  0  0  0  0  0  0  0  0
    2.9792   -0.0167    0.0000 C   0  0  0  0  0  0  0  0  0  0  0  0
    0.1167   -0.8542    0.0000 C   0  0  0  0  0  0  0  0  0  0  0  0
    0.8375   -1.2667    0.0000 C   0  0  0  0  0  0  0  0  0  0  0  0
    5.8292    0.7958    0.0000 F   0  0  0  0  0  0  0  0  0  0  0  0
    1.6292    0.9833    0.0000 C   0  0  0  0  0  0  0  0  0  0  0  0
    1.5500    1.6000    0.0000 C   0  0  0  0  0  0  0  0  0  0  0  0
    0.1167    1.6000    0.0000 C   0  0  0  0  0  0  0  0  0  0  0  0
    5.1167   -1.2542    0.0000 C   0  0  0  0  0  0  0  0  0  0  0  0
    6.5500   -0.4292    0.0000 C   0  0  0  0  0  0  0  0  0  0  0  0
    0.8375   -2.1000    0.0000 C   0  0  0  0  0  0  0  0  0  0  0  0
    5.8500   -1.6667    0.0000 C   0  0  0  0  0  0  0  0  0  0  0  0
    6.5542   -1.2542    0.0000 C   0  0  0  0  0  0  0  0  0  0  0  0
  2  1  2  0  0  0  0
  3  4  1  0  0  0  0
  4 12  1  0  0  0  0
  5  3  1  0  0  0  0
  6  2  1  0  0  0  0
  7  2  1  0  0  0  0
  8  1  1  0  0  0  0
  9  1  1  0  0  0  0
 10  5  2  0  0  0  0
 11  4  2  0  0  0  0
 12  8  1  0  0  0  0
 13 14  1  0  0  0  0
 13  6  2  0  0  0  0
 14  9  2  0  0  0  0
 15 10  1  0  0  0  0
 16  7  1  0  0  0  0
 17  7  1  0  0  0  0
 18  7  1  0  0  0  0
 19  5  1  0  0  0  0
 20 10  1  0  0  0  0
 20 23  2  0  0  0  0
 21 14  1  0  0  0  0
 22 19  2  0  0  0  0
 23 22  1  0  0  0  0
M  END
>  <ID>
5757320

>  <Supplier>
ChemBridge

>  <clogP>
4.800000000000000e+000

>  <RB>
5

>  <tPSA>
3.833000000000000e+001

>  <Hacc>
2

>  <Hdon>
1

>  <LogSw>
-5.599000000000000e+000

>  <Group>
2

>  <Core>
315

$$$$
7417751
 OpenBabel03312015312D

 22 24  0  0  0  0  0  0  0  0999 V2000
    5.8042    1.0125    0.0000 N   0  0  0  0  0  0  0  0  0  0  0  0
    6.6292    1.0125    0.0000 C   0  0  0  0  0  0  0  0  0  0  0  0
    6.2250   -0.2542    0.0000 C   0  0  0  0  0  0  0  0  0  0  0  0
    5.5542    0.2250    0.0000 C   0  0  0  0  0  0  0  0  0  0  0  0
    6.8917    0.2333    0.0000 S   0  0  0  0  0  0  0  0  0  0  0  0
    6.2292   -1.0792    0.0000 C   0  0  0  0  0  0  0  0  0  0  0  0
    5.5167   -1.5000    0.0000 C   0  0  0  0  0  0  0  0  0  0  0  0
    4.8000   -2.7417    0.0000 C   0  0  0  0  0  0  0  0  0  0  0  0
    4.0875   -2.3292    0.0000 C   0  0  0  0  0  0  0  0  0  0  0  0
    4.0875   -1.5042    0.0000 C   0  0  0  0  0  0  0  0  0  0  0  0
    5.5167   -2.3292    0.0000 C   0  0  0  0  0  0  0  0  0  0  0  0
    7.1125    1.6833    0.0000 S   0  0  0  0  0  0  0  0  0  0  0  0
    4.8000   -1.0875    0.0000 C   0  0  0  0  0  0  0  0  0  0  0  0
    3.3042   -2.5792    0.0000 O   0  0  0  0  0  0  0  0  0  0  0  0
    3.3042   -1.2500    0.0000 O   0  0  0  0  0  0  0  0  0  0  0  0
    4.7667   -0.0292    0.0000 O   0  0  0  0  0  0  0  0  0  0  0  0
    2.8167   -1.9167    0.0000 C   0  0  0  0  0  0  0  0  0  0  0  0
    5.3250    1.6833    0.0000 C   0  0  0  0  0  0  0  0  0  0  0  0
    5.6542    2.4333    0.0000 C   0  0  0  0  0  0  0  0  0  0  0  0
    5.1750    3.1083    0.0000 C   0  0  0  0  0  0  0  0  0  0  0  0
    6.2292   -2.7417    0.0000 O   0  0  0  0  0  0  0  0  0  0  0  0
    6.2292   -3.5667    0.0000 C   0  0  0  0  0  0  0  0  0  0  0  0
  2  1  1  0  0  0  0
  3  4  1  0  0  0  0
  3  5  1  0  0  0  0
  4  1  1  0  0  0  0
  5  2  1  0  0  0  0
  6  3  2  0  0  0  0
  7  6  1  0  0  0  0
  8 11  2  0  0  0  0
  9 10  2  0  0  0  0
  9  8  1  0  0  0  0
 10 13  1  0  0  0  0
 11  7  1  0  0  0  0
 12  2  2  0  0  0  0
 13  7  2  0  0  0  0
 14  9  1  0  0  0  0
 15 10  1  0  0  0  0
 16  4  2  0  0  0  0
 17 15  1  0  0  0  0
 17 14  1  0  0  0  0
 18  1  1  0  0  0  0
 19 18  1  0  0  0  0
 20 19  2  0  0  0  0
 21 11  1  0  0  0  0
 22 21  1  0  0  0  0
M  END
>  <ID>
7417751

>  <Supplier>
ChemBridge

>  <clogP>
2.469000000000000e+000

>  <RB>
3

>  <tPSA>
4.800000000000000e+001

>  <Hacc>
4

>  <Hdon>
0

>  <LogSw>
-3.815000000000000e+000

>  <Group>
1

>  <Core>
001

$$$$
7117909
 OpenBabel03312015312D

 19 20  0  0  0  0  0  0  0  0999 V2000
    2.2500    4.9542    0.0000 N   0  0  0  0  0  0  0  0  0  0  0  0
    3.6875    5.9000    0.0000 C   0  0  0  0  0  0  0  0  0  0  0  0
    0.8167    5.9000    0.0000 C   0  0  0  0  0  0  0  0  0  0  0  0
    3.6875    7.5792    0.0000 C   0  0  0  0  0  0  0  0  0  0  0  0
    0.8167    7.5792    0.0000 N   0  0  0  0  0  0  0  0  0  0  0  0
    2.2500    8.4792    0.0000 C   0  0  0  0  0  0  0  0  0  0  0  0
    4.7500    8.1542    0.0000 S   0  3  0  0  0  0  0  0  0  0  0  0
    2.2500    3.6958    0.0000 C   0  0  0  0  0  0  0  0  0  0  0  0
    5.1625    4.9542    0.0000 O   0  5  0  0  0  0  0  0  0  0  0  0
    0.0000    4.9542    0.0000 O   0  0  0  0  0  0  0  0  0  0  0  0
    2.2500    9.7500    0.0000 O   0  0  0  0  0  0  0  0  0  0  0  0
    3.3167    3.0833    0.0000 C   0  0  0  0  0  0  0  0  0  0  0  0
    1.1875    3.0833    0.0000 C   0  0  0  0  0  0  0  0  0  0  0  0
    2.2500    1.2333    0.0000 C   0  0  0  0  0  0  0  0  0  0  0  0
    1.1875    1.8458    0.0000 C   0  0  0  0  0  0  0  0  0  0  0  0
    3.3167    1.8458    0.0000 C   0  0  0  0  0  0  0  0  0  0  0  0
    2.2500    0.0000    0.0000 F   0  0  0  0  0  0  0  0  0  0  0  0
    5.8167    7.5292    0.0000 C   0  0  0  0  0  0  0  0  0  0  0  0
    4.7917    9.3792    0.0000 C   0  0  0  0  0  0  0  0  0  0  0  0
  2  1  1  0  0  0  0
  3  1  1  0  0  0  0
  4  2  2  0  0  0  0
  4  6  1  0  0  0  0
  5  3  1  0  0  0  0
  6  5  1  0  0  0  0
  7  4  1  0  0  0  0
  8  1  1  0  0  0  0
  9  2  1  0  0  0  0
 10  3  2  0  0  0  0
 11  6  2  0  0  0  0
 12  8  1  0  0  0  0
 13  8  2  0  0  0  0
 14 15  2  0  0  0  0
 15 13  1  0  0  0  0
 16 12  2  0  0  0  0
 16 14  1  0  0  0  0
 17 14  1  0  0  0  0
 18  7  1  0  0  0  0
 19  7  1  0  0  0  0
M  CHG  2   7   1   9  -1
M  END
>  <ID>
7117909

>  <Supplier>
ChemBridge

>  <clogP>
-2.000000000000000e-002

>  <RB>
2

>  <tPSA>
7.792000000000000e+001

>  <Hacc>
3

>  <Hdon>
1

>  <LogSw>
-2.567000000000000e+000

>  <Group>
3

$$$$
7695000
 OpenBabel03312015312D

 19 20  0  0  0  0  0  0  0  0999 V2000
    6.0792   -4.1167    0.0000 N   0  0  0  0  0  0  0  0  0  0  0  0
    6.2375   -2.7042    0.0000 N   0  0  0  0  0  0  0  0  0  0  0  0
    6.5667   -3.4542    0.0000 C   0  0  0  0  0  0  0  0  0  0  0  0
    5.4167   -2.6167    0.0000 C   0  0  0  0  0  0  0  0  0  0  0  0
    5.2667   -4.0375    0.0000 C   0  0  0  0  0  0  0  0  0  0  0  0
    4.9375   -3.2792    0.0000 C   0  0  0  0  0  0  0  0  0  0  0  0
    7.3875   -3.5417    0.0000 S   0  0  0  0  0  0  0  0  0  0  0  0
    8.6292   -4.2500    0.0000 C   0  0  0  0  0  0  0  0  0  0  0  0
    9.4625   -4.2375    0.0000 C   0  0  0  0  0  0  0  0  0  0  0  0
    8.2125   -3.5417    0.0000 C   0  0  0  0  0  0  0  0  0  0  0  0
    8.2250   -4.9625    0.0000 O   0  0  0  0  0  0  0  0  0  0  0  0
    9.8542   -3.5167    0.0000 C   0  0  0  0  0  0  0  0  0  0  0  0
    9.8792   -4.9542    0.0000 C   0  0  0  0  0  0  0  0  0  0  0  0
    5.0917   -1.8667    0.0000 N   0  0  0  0  0  0  0  0  0  0  0  0
    4.7875   -4.7000    0.0000 N   0  0  0  0  0  0  0  0  0  0  0  0
   11.1042   -4.2167    0.0000 C   0  0  0  0  0  0  0  0  0  0  0  0
   10.6792   -3.5042    0.0000 C   0  0  0  0  0  0  0  0  0  0  0  0
   10.7000   -4.9417    0.0000 C   0  0  0  0  0  0  0  0  0  0  0  0
   11.9375   -4.2042    0.0000 Cl  0  0  0  0  0  0  0  0  0  0  0  0
  2  3  2  0  0  0  0
  3  1  1  0  0  0  0
  4  6  2  0  0  0  0
  4  2  1  0  0  0  0
  5  1  2  0  0  0  0
  6  5  1  0  0  0  0
  7  3  1  0  0  0  0
  8 10  1  0  0  0  0
  9  8  1  0  0  0  0
 10  7  1  0  0  0  0
 11  8  2  0  0  0  0
 12  9  1  0  0  0  0
 13  9  2  0  0  0  0
 14  4  1  0  0  0  0
 15  5  1  0  0  0  0
 16 18  2  0  0  0  0
 17 12  2  0  0  0  0
 17 16  1  0  0  0  0
 18 13  1  0  0  0  0
 19 16  1  0  0  0  0
M  END
>  <ID>
7695000

>  <Supplier>
ChemBridge

>  <clogP>
2.613000000000000e+000

>  <RB>
4

>  <tPSA>
9.489000000000003e+001

>  <Hacc>
3

>  <Hdon>
2

>  <LogSw>
-1.977000000000000e+000

>  <Group>
3

>  <Core>
036

$$$$
6023649
 OpenBabel03312015312D

 28 32  0  0  0  0  0  0  0  0999 V2000
    1.3625   -3.0292    0.0000 N   0  0  0  0  0  0  0  0  0  0  0  0
    0.7167   -2.5750    0.0000 C   0  0  0  0  0  0  0  0  0  0  0  0
    2.0792   -2.7000    0.0000 C   0  0  0  0  0  0  0  0  0  0  0  0
    2.1542   -1.9167    0.0000 C   0  0  0  0  0  0  0  0  0  0  0  0
    4.8542   -2.4500    0.0000 N   0  0  0  0  0  0  0  0  0  0  0  0
    0.0792   -3.0542    0.0000 N   0  0  0  0  0  0  0  0  0  0  0  0
    3.5792   -2.0500    0.0000 C   0  0  0  0  0  0  0  0  0  0  0  0
    1.5042   -1.4625    0.0000 S   0  0  0  0  0  0  0  0  0  0  0  0
    4.3667   -3.1167    0.0000 C   0  0  0  0  0  0  0  0  0  0  0  0
    4.3667   -1.7875    0.0000 C   0  0  0  0  0  0  0  0  0  0  0  0
    2.9042   -1.5667    0.0000 C   0  0  0  0  0  0  0  0  0  0  0  0
    3.5875   -2.8667    0.0000 C   0  0  0  0  0  0  0  0  0  0  0  0
    1.1167   -3.7792    0.0000 C   0  0  0  0  0  0  0  0  0  0  0  0
    0.3292   -3.7917    0.0000 C   0  0  0  0  0  0  0  0  0  0  0  0
    5.6792   -2.4500    0.0000 C   0  0  0  0  0  0  0  0  0  0  0  0
    2.7167   -3.1542    0.0000 O   0  0  0  0  0  0  0  0  0  0  0  0
    6.0875   -1.7375    0.0000 C   0  0  0  0  0  0  0  0  0  0  0  0
    6.0917   -3.1667    0.0000 C   0  0  0  0  0  0  0  0  0  0  0  0
    7.3292   -2.4542    0.0000 C   0  0  0  0  0  0  0  0  0  0  0  0
    4.6292   -3.9000    0.0000 C   0  0  0  0  0  0  0  0  0  0  0  0
    4.6167   -1.0000    0.0000 C   0  0  0  0  0  0  0  0  0  0  0  0
    6.9125   -3.1667    0.0000 C   0  0  0  0  0  0  0  0  0  0  0  0
    6.9167   -1.7417    0.0000 C   0  0  0  0  0  0  0  0  0  0  0  0
    8.1542   -2.4542    0.0000 Cl  0  0  0  0  0  0  0  0  0  0  0  0
    1.5167   -4.4542    0.0000 C   0  0  0  0  0  0  0  0  0  0  0  0
   -0.0583   -4.4750    0.0000 C   0  0  0  0  0  0  0  0  0  0  0  0
    1.1375   -5.1417    0.0000 C   0  0  0  0  0  0  0  0  0  0  0  0
    0.3500   -5.1500    0.0000 C   0  0  0  0  0  0  0  0  0  0  0  0
  2  1  1  0  0  0  0
  3  1  1  0  0  0  0
  4  3  1  0  0  0  0
  5 10  1  0  0  0  0
  5  9  1  0  0  0  0
  6  2  2  0  0  0  0
  7 11  1  0  0  0  0
  8  2  1  0  0  0  0
  8  4  1  0  0  0  0
  9 12  2  0  0  0  0
 10  7  2  0  0  0  0
 11  4  2  0  0  0  0
 12  7  1  0  0  0  0
 13  1  1  0  0  0  0
 14 13  2  0  0  0  0
 14  6  1  0  0  0  0
 15  5  1  0  0  0  0
 16  3  2  0  0  0  0
 17 15  1  0  0  0  0
 18 15  2  0  0  0  0
 19 22  2  0  0  0  0
 19 23  1  0  0  0  0
 20  9  1  0  0  0  0
 21 10  1  0  0  0  0
 22 18  1  0  0  0  0
 23 17  2  0  0  0  0
 24 19  1  0  0  0  0
 25 13  1  0  0  0  0
 26 14  1  0  0  0  0
 27 25  2  0  0  0  0
 28 27  1  0  0  0  0
 28 26  2  0  0  0  0
M  END
>  <ID>
6023649

>  <Supplier>
ChemBridge

>  <clogP>
5.400000000000000e+000

>  <RB>
2

>  <tPSA>
3.930000000000000e+001

>  <Hacc>
4

>  <Hdon>
0

>  <LogSw>
-6.771000000000002e+000

>  <Group>
1

>  <Core>
032

$$$$
7695002
 OpenBabel03312015312D

 31 33  0  0  0  0  0  0  0  0999 V2000
    4.2250    1.9750    0.0000 N   0  0  0  0  0  0  0  0  0  0  0  0
    4.4792    2.7708    0.0000 C   0  0  0  0  0  0  0  0  0  0  0  0
    5.3125    2.7750    0.0000 N   0  0  0  0  0  0  0  0  0  0  0  0
    4.9042    1.4833    0.0000 C   0  0  0  0  0  0  0  0  0  0  0  0
    5.5792    1.9833    0.0000 N   0  0  0  0  0  0  0  0  0  0  0  0
    4.6125    4.9625    0.0000 C   0  0  0  0  0  0  0  0  0  0  0  0
    4.8375    4.1542    0.0000 N   0  0  0  0  0  0  0  0  0  0  0  0
    4.2542    3.5708    0.0000 C   0  0  3  0  0  0  0  0  0  0  0  0
    4.9042    0.6500    0.0000 S   0  0  0  0  0  0  0  0  0  0  0  0
    3.2125    0.4875    0.0000 C   0  0  0  0  0  0  0  0  0  0  0  0
    3.8042    5.1667    0.0000 C   0  0  0  0  0  0  0  0  0  0  0  0
    2.4917    0.0708    0.0000 N   0  0  0  0  0  0  0  0  0  0  0  0
    5.1917    5.5542    0.0000 O   0  0  0  0  0  0  0  0  0  0  0  0
    3.2042    1.3208    0.0000 O   0  0  0  0  0  0  0  0  0  0  0  0
    3.4292    1.7208    0.0000 C   0  0  0  0  0  0  0  0  0  0  0  0
    3.9292    0.0750    0.0000 C   0  0  0  0  0  0  0  0  0  0  0  0
    3.5750    5.9667    0.0000 C   0  0  0  0  0  0  0  0  0  0  0  0
    3.2167    4.5667    0.0000 C   0  0  0  0  0  0  0  0  0  0  0  0
    2.4917   -0.7542    0.0000 C   0  0  0  0  0  0  0  0  0  0  0  0
    2.1792    5.5792    0.0000 C   0  0  0  0  0  0  0  0  0  0  0  0
    2.4917   -2.4167    0.0000 C   0  0  0  0  0  0  0  0  0  0  0  0
    2.7667    6.1792    0.0000 C   0  0  0  0  0  0  0  0  0  0  0  0
    2.4042    4.7792    0.0000 C   0  0  0  0  0  0  0  0  0  0  0  0
    2.4917   -3.2417    0.0000 F   0  0  0  0  0  0  0  0  0  0  0  0
    1.3750    5.7917    0.0000 Cl  0  0  0  0  0  0  0  0  0  0  0  0
    1.7792   -1.1750    0.0000 C   0  0  0  0  0  0  0  0  0  0  0  0
    3.2042   -1.1750    0.0000 C   0  0  0  0  0  0  0  0  0  0  0  0
    3.2042   -2.0042    0.0000 C   0  0  0  0  0  0  0  0  0  0  0  0
    1.7792   -2.0042    0.0000 C   0  0  0  0  0  0  0  0  0  0  0  0
    3.4417    3.7708    0.0000 C   0  0  0  0  0  0  0  0  0  0  0  0
    2.8042    2.2750    0.0000 C   0  0  0  0  0  0  0  0  0  0  0  0
  2  1  1  0  0  0  0
  3  2  2  0  0  0  0
  4  1  1  0  0  0  0
  5  4  2  0  0  0  0
  5  3  1  0  0  0  0
  6  7  1  0  0  0  0
  7  8  1  0  0  0  0
  8  2  1  0  0  0  0
  9  4  1  0  0  0  0
 10 16  1  0  0  0  0
 11  6  1  0  0  0  0
 12 10  1  0  0  0  0
 13  6  2  0  0  0  0
 14 10  2  0  0  0  0
 15  1  1  0  0  0  0
 16  9  1  0  0  0  0
 17 11  1  0  0  0  0
 18 11  2  0  0  0  0
 19 12  1  0  0  0  0
 20 23  2  0  0  0  0
 21 28  2  0  0  0  0
 22 17  2  0  0  0  0
 22 20  1  0  0  0  0
 23 18  1  0  0  0  0
 24 21  1  0  0  0  0
 25 20  1  0  0  0  0
 26 19  1  0  0  0  0
 27 19  2  0  0  0  0
 28 27  1  0  0  0  0
 29 26  2  0  0  0  0
 29 21  1  0  0  0  0
 30  8  1  0  0  0  0
 31 15  1  0  0  0  0
M  END
>  <ID>
7695002

>  <Supplier>
ChemBridge

>  <clogP>
2.977000000000000e+000

>  <RB>
7

>  <tPSA>
8.891000000000000e+001

>  <Hacc>
5

>  <Hdon>
2

>  <LogSw>
-5.870000000000000e+000

>  <Group>
1

>  <Core>
009

$$$$
7409040
 OpenBabel03312015312D

 27 29  0  0  0  0  0  0  0  0999 V2000
    0.2292   -1.9042    0.0000 S   0  0  0  0  0  0  0  0  0  0  0  0
    0.8042   -0.9292    0.0000 C   0  0  3  0  0  0  0  0  0  0  0  0
    0.8875   -1.6292    0.0000 C   0  0  0  0  0  0  0  0  0  0  0  0
    0.1042   -0.7667    0.0000 C   0  0  0  0  0  0  0  0  0  0  0  0
    1.3875   -0.5042    0.0000 N   0  0  0  0  0  0  0  0  0  0  0  0
   -0.2500   -1.3875    0.0000 C   0  0  0  0  0  0  0  0  0  0  0  0
    1.3292    0.2125    0.0000 C   0  0  0  0  0  0  0  0  0  0  0  0
   -0.4708   -2.1292    0.0000 O   0  0  0  0  0  0  0  0  0  0  0  0
    0.5500   -2.5500    0.0000 O   0  0  0  0  0  0  0  0  0  0  0  0
    3.0667    1.4958    0.0000 C   0  0  0  0  0  0  0  0  0  0  0  0
    2.0292   -0.8042    0.0000 C   0  0  0  0  0  0  0  0  0  0  0  0
    2.4042    1.7958    0.0000 C   0  0  0  0  0  0  0  0  0  0  0  0
    1.8292    1.3500    0.0000 O   0  0  0  0  0  0  0  0  0  0  0  0
    1.9042    0.6333    0.0000 C   0  0  0  0  0  0  0  0  0  0  0  0
    0.6667    0.5125    0.0000 O   0  0  0  0  0  0  0  0  0  0  0  0
    3.6500    1.9333    0.0000 C   0  0  0  0  0  0  0  0  0  0  0  0
    2.6167   -0.4000    0.0000 C   0  0  0  0  0  0  0  0  0  0  0  0
    2.0875   -1.5292    0.0000 C   0  0  0  0  0  0  0  0  0  0  0  0
    2.3292    2.4958    0.0000 C   0  0  0  0  0  0  0  0  0  0  0  0
    3.5667    2.6333    0.0000 C   0  0  0  0  0  0  0  0  0  0  0  0
    2.9042    2.9125    0.0000 C   0  0  0  0  0  0  0  0  0  0  0  0
    3.2667   -0.7042    0.0000 C   0  0  0  0  0  0  0  0  0  0  0  0
    2.7375   -1.8292    0.0000 C   0  0  0  0  0  0  0  0  0  0  0  0
    3.3292   -1.4167    0.0000 C   0  0  0  0  0  0  0  0  0  0  0  0
    3.1292    0.7708    0.0000 C   0  0  0  0  0  0  0  0  0  0  0  0
    4.1500    3.0708    0.0000 C   0  0  0  0  0  0  0  0  0  0  0  0
    3.9792   -1.7167    0.0000 C   0  0  0  0  0  0  0  0  0  0  0  0
  2  3  1  0  0  0  0
  3  1  1  0  0  0  0
  4  6  2  0  0  0  0
  4  2  1  0  0  0  0
  5  2  1  0  0  0  0
  6  1  1  0  0  0  0
  7  5  1  0  0  0  0
  8  1  2  0  0  0  0
  9  1  2  0  0  0  0
 10 12  2  0  0  0  0
 11  5  1  0  0  0  0
 12 13  1  0  0  0  0
 13 14  1  0  0  0  0
 14  7  1  0  0  0  0
 15  7  2  0  0  0  0
 16 10  1  0  0  0  0
 16 20  2  0  0  0  0
 17 11  1  0  0  0  0
 18 11  2  0  0  0  0
 19 12  1  0  0  0  0
 20 21  1  0  0  0  0
 21 19  2  0  0  0  0
 22 17  2  0  0  0  0
 22 24  1  0  0  0  0
 23 18  1  0  0  0  0
 24 23  2  0  0  0  0
 25 10  1  0  0  0  0
 26 20  1  0  0  0  0
 27 24  1  0  0  0  0
M  END
>  <ID>
7409040

>  <Supplier>
ChemBridge

>  <clogP>
3.350000000000000e+000

>  <RB>
5

>  <tPSA>
6.367999999999998e+001

>  <Hacc>
4

>  <Hdon>
0

>  <LogSw>
-4.105000000000000e+000

>  <Group>
2

>  <Core>
315

$$$$
7944161
 OpenBabel03312015312D

 27 29  0  0  0  0  0  0  0  0999 V2000
   -0.2708    2.1333    0.0000 N   0  0  0  0  0  0  0  0  0  0  0  0
    0.8542    2.7833    0.0000 C   0  0  0  0  0  0  0  0  0  0  0  0
   -1.4208    2.5083    0.0000 C   0  0  0  0  0  0  0  0  0  0  0  0
   -0.7083    1.5250    0.0000 N   0  0  0  0  0  0  0  0  0  0  0  0
   -2.7125    2.6458    0.0000 C   0  0  0  0  0  0  0  0  0  0  0  0
   -0.7083    2.7375    0.0000 C   0  0  0  0  0  0  0  0  0  0  0  0
   -2.0250    2.9458    0.0000 N   0  0  0  0  0  0  0  0  0  0  0  0
   -1.4208    1.7583    0.0000 C   0  0  0  0  0  0  0  0  0  0  0  0
   -3.3208    3.0833    0.0000 C   0  0  0  0  0  0  0  0  0  0  0  0
    0.4792    2.1333    0.0000 C   0  0  0  0  0  0  0  0  0  0  0  0
   -3.2458    3.8333    0.0000 C   0  0  0  0  0  0  0  0  0  0  0  0
   -3.8458    4.2625    0.0000 C   0  0  0  0  0  0  0  0  0  0  0  0
    1.6042    2.7833    0.0000 C   0  0  0  0  0  0  0  0  0  0  0  0
    0.4792    3.4333    0.0000 C   0  0  0  0  0  0  0  0  0  0  0  0
   -4.5333    3.9625    0.0000 C   0  0  0  0  0  0  0  0  0  0  0  0
   -2.7958    1.8958    0.0000 O   0  0  0  0  0  0  0  0  0  0  0  0
   -4.0083    2.7750    0.0000 C   0  0  0  0  0  0  0  0  0  0  0  0
   -4.6125    3.2208    0.0000 C   0  0  0  0  0  0  0  0  0  0  0  0
    1.9792    2.1333    0.0000 Cl  0  0  0  0  0  0  0  0  0  0  0  0
   -0.2708    3.4333    0.0000 F   0  0  0  0  0  0  0  0  0  0  0  0
   -3.7708    5.0042    0.0000 O   0  0  0  0  0  0  0  0  0  0  0  0
   -5.1458    4.4000    0.0000 O   0  0  0  0  0  0  0  0  0  0  0  0
    1.6042    4.0750    0.0000 C   0  0  0  0  0  0  0  0  0  0  0  0
    1.9792    3.4333    0.0000 C   0  0  0  0  0  0  0  0  0  0  0  0
    0.8542    4.0750    0.0000 C   0  0  0  0  0  0  0  0  0  0  0  0
   -3.0833    5.3167    0.0000 C   0  0  0  0  0  0  0  0  0  0  0  0
   -5.8333    4.0917    0.0000 C   0  0  0  0  0  0  0  0  0  0  0  0
  2 10  1  0  0  0  0
  3  6  2  0  0  0  0
  3  8  1  0  0  0  0
  4  1  1  0  0  0  0
  5  7  1  0  0  0  0
  6  1  1  0  0  0  0
  7  3  1  0  0  0  0
  8  4  2  0  0  0  0
  9  5  1  0  0  0  0
 10  1  1  0  0  0  0
 11  9  1  0  0  0  0
 12 11  2  0  0  0  0
 13  2  2  0  0  0  0
 14  2  1  0  0  0  0
 15 18  2  0  0  0  0
 15 12  1  0  0  0  0
 16  5  2  0  0  0  0
 17  9  2  0  0  0  0
 18 17  1  0  0  0  0
 19 13  1  0  0  0  0
 20 14  1  0  0  0  0
 21 12  1  0  0  0  0
 22 15  1  0  0  0  0
 23 25  1  0  0  0  0
 24 13  1  0  0  0  0
 24 23  2  0  0  0  0
 25 14  2  0  0  0  0
 26 21  1  0  0  0  0
 27 22  1  0  0  0  0
M  END
>  <ID>
7944161

>  <Supplier>
ChemBridge

>  <clogP>
3.530000000000000e+000

>  <RB>
4

>  <tPSA>
6.538000000000000e+001

>  <Hacc>
4

>  <Hdon>
1

>  <LogSw>
-5.056000000000000e+000

>  <Group>
2

>  <Core>
322

$$$$
7944162
 OpenBabel03312015312D

 24 25  0  0  0  0  0  0  0  0999 V2000
    2.3917    2.4958    0.0000 C   0  0  0  0  0  0  0  0  0  0  0  0
    3.0000    2.0500    0.0000 C   0  0  0  0  0  0  0  0  0  0  0  0
    0.4042    2.5333    0.0000 C   0  0  0  0  0  0  0  0  0  0  0  0
    3.6042    2.4958    0.0000 C   0  0  0  0  0  0  0  0  0  0  0  0
    3.3750    3.2083    0.0000 C   0  0  0  0  0  0  0  0  0  0  0  0
    2.6250    3.2083    0.0000 S   0  0  0  0  0  0  0  0  0  0  0  0
    1.1167    2.7708    0.0000 C   0  0  0  0  0  0  0  0  0  0  0  0
    1.6792    2.2708    0.0000 N   0  0  0  0  0  0  0  0  0  0  0  0
   -0.2000    2.9708    0.0000 C   0  0  0  0  0  0  0  0  0  0  0  0
    0.1750    1.8208    0.0000 C   0  0  0  0  0  0  0  0  0  0  0  0
   -0.5750    1.8208    0.0000 S   0  0  0  0  0  0  0  0  0  0  0  0
    3.0000    1.3000    0.0000 C   0  0  0  0  0  0  0  0  0  0  0  0
   -0.8083    2.5333    0.0000 C   0  0  0  0  0  0  0  0  0  0  0  0
    3.8125    3.8125    0.0000 C   0  0  0  0  0  0  0  0  0  0  0  0
    1.2792    3.4958    0.0000 O   0  0  0  0  0  0  0  0  0  0  0  0
    2.3500    0.9250    0.0000 O   0  0  0  0  0  0  0  0  0  0  0  0
    3.5042    4.4917    0.0000 O   0  0  0  0  0  0  0  0  0  0  0  0
    4.5625    3.7333    0.0000 N   0  0  0  0  0  0  0  0  0  0  0  0
    4.3167    2.2708    0.0000 C   0  0  0  0  0  0  0  0  0  0  0  0
    3.6500    0.9250    0.0000 O   0  0  0  0  0  0  0  0  0  0  0  0
   -0.2000    3.7208    0.0000 C   0  0  0  0  0  0  0  0  0  0  0  0
   -1.5208    2.7708    0.0000 C   0  0  0  0  0  0  0  0  0  0  0  0
    3.6500    0.1750    0.0000 C   0  0  0  0  0  0  0  0  0  0  0  0
   -0.8500    4.0917    0.0000 C   0  0  0  0  0  0  0  0  0  0  0  0
  2  1  2  0  0  0  0
  3  7  1  0  0  0  0
  4  2  1  0  0  0  0
  5  6  1  0  0  0  0
  5  4  2  0  0  0  0
  6  1  1  0  0  0  0
  7  8  1  0  0  0  0
  8  1  1  0  0  0  0
  9  3  1  0  0  0  0
 10  3  2  0  0  0  0
 11 10  1  0  0  0  0
 12  2  1  0  0  0  0
 13  9  2  0  0  0  0
 13 11  1  0  0  0  0
 14  5  1  0  0  0  0
 15  7  2  0  0  0  0
 16 12  2  0  0  0  0
 17 14  2  0  0  0  0
 18 14  1  0  0  0  0
 19  4  1  0  0  0  0
 20 12  1  0  0  0  0
 21  9  1  0  0  0  0
 22 13  1  0  0  0  0
 23 20  1  0  0  0  0
 24 21  1  0  0  0  0
M  END
>  <ID>
7944162

>  <Supplier>
ChemBridge

>  <clogP>
2.515000000000000e+000

>  <RB>
4

>  <tPSA>
9.849000000000002e+001

>  <Hacc>
4

>  <Hdon>
2

>  <LogSw>
-4.020000000000000e+000

>  <Group>
3

>  <Core>
269

$$$$
7695007
 OpenBabel03312015312D

 30 33  0  0  0  0  0  0  0  0999 V2000
    6.1167   -0.1792    0.0000 C   0  0  0  0  0  0  0  0  0  0  0  0
    5.4667   -0.5542    0.0000 C   0  0  0  0  0  0  0  0  0  0  0  0
    0.2667   -2.8125    0.0000 C   0  0  0  0  0  0  0  0  0  0  0  0
    0.9167   -2.4375    0.0000 N   0  0  0  0  0  0  0  0  0  0  0  0
    6.8000   -0.4875    0.0000 O   0  0  0  0  0  0  0  0  0  0  0  0
    2.2167   -1.6875    0.0000 N   0  0  0  0  0  0  0  0  0  0  0  0
    7.3042    0.0708    0.0000 C   0  0  0  0  0  0  0  0  0  0  0  0
    6.1917    0.5625    0.0000 C   0  0  0  0  0  0  0  0  0  0  0  0
    4.8167   -0.1792    0.0000 N   0  0  0  0  0  0  0  0  0  0  0  0
    6.9292    0.7208    0.0000 C   0  0  0  0  0  0  0  0  0  0  0  0
   -0.3833   -2.4375    0.0000 C   0  0  0  0  0  0  0  0  0  0  0  0
    2.8667   -1.3125    0.0000 C   0  0  0  0  0  0  0  0  0  0  0  0
    1.5667   -2.8125    0.0000 C   0  0  0  0  0  0  0  0  0  0  0  0
    0.9167   -1.6875    0.0000 C   0  0  0  0  0  0  0  0  0  0  0  0
    2.2167   -2.4375    0.0000 C   0  0  0  0  0  0  0  0  0  0  0  0
    1.5667   -1.3125    0.0000 C   0  0  0  0  0  0  0  0  0  0  0  0
    0.2667   -3.5625    0.0000 O   0  0  0  0  0  0  0  0  0  0  0  0
    5.4667   -1.3042    0.0000 O   0  0  0  0  0  0  0  0  0  0  0  0
    3.5125   -1.6875    0.0000 C   0  0  0  0  0  0  0  0  0  0  0  0
    2.8667   -0.5542    0.0000 C   0  0  0  0  0  0  0  0  0  0  0  0
   -1.0333   -2.8125    0.0000 C   0  0  0  0  0  0  0  0  0  0  0  0
   -0.3833   -1.6875    0.0000 C   0  0  0  0  0  0  0  0  0  0  0  0
    4.1667   -0.5542    0.0000 C   0  0  0  0  0  0  0  0  0  0  0  0
    8.0500   -0.0125    0.0000 Br  0  0  0  0  0  0  0  0  0  0  0  0
    4.1667   -1.3125    0.0000 C   0  0  0  0  0  0  0  0  0  0  0  0
    3.5125   -0.1792    0.0000 C   0  0  0  0  0  0  0  0  0  0  0  0
   -1.6833   -2.4375    0.0000 C   0  0  0  0  0  0  0  0  0  0  0  0
   -1.0333   -1.3125    0.0000 C   0  0  0  0  0  0  0  0  0  0  0  0
   -1.6833   -1.6875    0.0000 C   0  0  0  0  0  0  0  0  0  0  0  0
   -2.3333   -1.3125    0.0000 C   0  0  0  0  0  0  0  0  0  0  0  0
  2  1  1  0  0  0  0
  3  4  1  0  0  0  0
  4 14  1  0  0  0  0
  5  1  1  0  0  0  0
  6 12  1  0  0  0  0
  7  5  1  0  0  0  0
  8  1  2  0  0  0  0
  9  2  1  0  0  0  0
 10  8  1  0  0  0  0
 10  7  2  0  0  0  0
 11  3  1  0  0  0  0
 12 20  1  0  0  0  0
 13 15  1  0  0  0  0
 13  4  1  0  0  0  0
 14 16  1  0  0  0  0
 15  6  1  0  0  0  0
 16  6  1  0  0  0  0
 17  3  2  0  0  0  0
 18  2  2  0  0  0  0
 19 25  1  0  0  0  0
 19 12  2  0  0  0  0
 20 26  2  0  0  0  0
 21 11  2  0  0  0  0
 22 11  1  0  0  0  0
 23  9  1  0  0  0  0
 24  7  1  0  0  0  0
 25 23  2  0  0  0  0
 26 23  1  0  0  0  0
 27 21  1  0  0  0  0
 27 29  2  0  0  0  0
 28 22  2  0  0  0  0
 29 28  1  0  0  0  0
 30 29  1  0  0  0  0
M  END
>  <ID>
7695007

>  <Supplier>
ChemBridge

>  <clogP>
3.194000000000000e+000

>  <RB>
4

>  <tPSA>
6.579000000000002e+001

>  <Hacc>
3

>  <Hdon>
1

>  <LogSw>
-5.783000000000000e+000

>  <Group>
2

>  <Core>
158

$$$$
5456737
 OpenBabel03312015312D

 27 29  0  0  0  0  0  0  0  0999 V2000
   -3.4333    2.1833    0.0000 C   0  0  0  0  0  0  0  0  0  0  0  0
   -4.0958    1.8000    0.0000 C   0  0  0  0  0  0  0  0  0  0  0  0
   -3.4333    2.9208    0.0000 C   0  0  0  0  0  0  0  0  0  0  0  0
    0.7667    2.2083    0.0000 C   0  0  0  0  0  0  0  0  0  0  0  0
   -1.2708    1.8125    0.0000 N   0  0  0  0  0  0  0  0  0  0  0  0
    2.1292    2.9958    0.0000 C   0  0  0  0  0  0  0  0  0  0  0  0
    0.0875    1.8125    0.0000 C   0  0  0  0  0  0  0  0  0  0  0  0
    0.7667    2.9958    0.0000 C   0  0  0  0  0  0  0  0  0  0  0  0
    1.4500    1.8000    0.0000 C   0  0  0  0  0  0  0  0  0  0  0  0
    1.4500    3.3833    0.0000 C   0  0  0  0  0  0  0  0  0  0  0  0
    2.1292    2.2083    0.0000 C   0  0  0  0  0  0  0  0  0  0  0  0
   -1.9500    2.2083    0.0000 C   0  0  0  0  0  0  0  0  0  0  0  0
    2.8042    3.3958    0.0000 O   0  0  0  0  0  0  0  0  0  0  0  0
   -0.5958    2.2125    0.0000 C   0  0  3  0  0  0  0  0  0  0  0  0
   -2.6333    1.8125    0.0000 C   0  0  0  0  0  0  0  0  0  0  0  0
   -4.7333    2.1833    0.0000 C   0  0  0  0  0  0  0  0  0  0  0  0
   -2.7958    3.2833    0.0000 C   0  0  0  0  0  0  0  0  0  0  0  0
   -4.0708    3.2833    0.0000 C   0  0  0  0  0  0  0  0  0  0  0  0
   -4.0958    1.0833    0.0000 C   0  0  0  0  0  0  0  0  0  0  0  0
    3.4792    3.0208    0.0000 C   0  0  0  0  0  0  0  0  0  0  0  0
   -0.5958    2.9958    0.0000 C   0  0  0  0  0  0  0  0  0  0  0  0
   -5.3708    1.8000    0.0000 C   0  0  0  0  0  0  0  0  0  0  0  0
   -4.7333    0.7000    0.0000 C   0  0  0  0  0  0  0  0  0  0  0  0
   -2.7958    4.0167    0.0000 C   0  0  0  0  0  0  0  0  0  0  0  0
   -4.0708    4.0167    0.0000 C   0  0  0  0  0  0  0  0  0  0  0  0
   -3.4333    4.3792    0.0000 C   0  0  0  0  0  0  0  0  0  0  0  0
   -5.3708    1.0833    0.0000 C   0  0  0  0  0  0  0  0  0  0  0  0
  2  1  1  0  0  0  0
  3  1  1  0  0  0  0
  4  7  1  0  0  0  0
  5 12  1  0  0  0  0
  6 11  1  0  0  0  0
  6 10  2  0  0  0  0
  7 14  1  0  0  0  0
  8  4  2  0  0  0  0
  9  4  1  0  0  0  0
 10  8  1  0  0  0  0
 11  9  2  0  0  0  0
 12 15  1  0  0  0  0
 13  6  1  0  0  0  0
 14  5  1  0  0  0  0
 15  1  1  0  0  0  0
 16  2  1  0  0  0  0
 17  3  2  0  0  0  0
 18  3  1  0  0  0  0
 19  2  2  0  0  0  0
 20 13  1  0  0  0  0
 21 14  1  0  0  0  0
 22 16  2  0  0  0  0
 23 19  1  0  0  0  0
 24 17  1  0  0  0  0
 24 26  2  0  0  0  0
 25 18  2  0  0  0  0
 26 25  1  0  0  0  0
 27 23  2  0  0  0  0
 27 22  1  0  0  0  0
M  END
>  <ID>
5456737

>  <Supplier>
ChemBridge

>  <clogP>
5.720000000000000e+000

>  <RB>
8

>  <tPSA>
2.126000000000000e+001

>  <Hacc>
2

>  <Hdon>
1

>  <LogSw>
-5.698000000000000e+000

>  <Group>
2

$$$$
9004023
 OpenBabel03312015312D

 17 18  0  0  0  0  0  0  0  0999 V2000
    2.1625    2.2750    0.0000 N   0  0  0  0  0  0  0  0  0  0  0  0
    2.9125    2.2750    0.0000 N   0  0  0  0  0  0  0  0  0  0  0  0
    3.2875    1.6250    0.0000 C   0  0  0  0  0  0  0  0  0  0  0  0
    1.7167    2.8833    0.0000 C   0  0  0  0  0  0  0  0  0  0  0  0
    1.7167    1.6708    0.0000 C   0  0  0  0  0  0  0  0  0  0  0  0
    1.0042    2.6500    0.0000 C   0  0  0  0  0  0  0  0  0  0  0  0
    1.0042    1.9000    0.0000 C   0  0  0  0  0  0  0  0  0  0  0  0
    4.0375    1.6250    0.0000 C   0  0  0  0  0  0  0  0  0  0  0  0
    2.9125    0.9750    0.0000 O   0  0  0  0  0  0  0  0  0  0  0  0
    4.4125    0.9750    0.0000 C   0  0  0  0  0  0  0  0  0  0  0  0
    4.4125    2.2750    0.0000 C   0  0  0  0  0  0  0  0  0  0  0  0
    5.5375    1.6250    0.0000 C   0  0  0  0  0  0  0  0  0  0  0  0
    5.1625    2.2750    0.0000 C   0  0  0  0  0  0  0  0  0  0  0  0
    5.1625    0.9750    0.0000 C   0  0  0  0  0  0  0  0  0  0  0  0
    6.2875    1.6250    0.0000 Cl  0  0  0  0  0  0  0  0  0  0  0  0
    1.9542    0.9583    0.0000 C   0  0  0  0  0  0  0  0  0  0  0  0
    1.9542    3.5958    0.0000 C   0  0  0  0  0  0  0  0  0  0  0  0
  2  1  1  0  0  0  0
  3  2  1  0  0  0  0
  4  1  1  0  0  0  0
  5  1  1  0  0  0  0
  6  4  2  0  0  0  0
  6  7  1  0  0  0  0
  7  5  2  0  0  0  0
  8  3  1  0  0  0  0
  9  3  2  0  0  0  0
 10  8  2  0  0  0  0
 11  8  1  0  0  0  0
 12 13  1  0  0  0  0
 13 11  2  0  0  0  0
 14 10  1  0  0  0  0
 14 12  2  0  0  0  0
 15 12  1  0  0  0  0
 16  5  1  0  0  0  0
 17  4  1  0  0  0  0
M  END
>  <ID>
9004023

>  <Supplier>
ChemBridge

>  <clogP>
4.010000000000000e+000

>  <RB>
2

>  <tPSA>
3.403000000000000e+001

>  <Hacc>
1

>  <Hdon>
1

>  <LogSw>
-4.439000000000002e+000

>  <Group>
2

$$$$
7944168
 OpenBabel03312015312D

 28 31  0  0  0  0  0  0  0  0999 V2000
    3.2375    3.1958    0.0000 C   0  0  0  0  0  0  0  0  0  0  0  0
    0.9875    1.8958    0.0000 C   0  0  0  0  0  0  0  0  0  0  0  0
    3.9875    3.1958    0.0000 N   0  0  0  0  0  0  0  0  0  0  0  0
    2.8625    2.5458    0.0000 C   0  0  0  0  0  0  0  0  0  0  0  0
    1.7375    1.8958    0.0000 C   0  0  0  0  0  0  0  0  0  0  0  0
    5.4875    3.1958    0.0000 N   0  0  0  0  0  0  0  0  0  0  0  0
    6.6125    1.2458    0.0000 C   0  0  0  0  0  0  0  0  0  0  0  0
    2.1125    2.5458    0.0000 C   0  0  0  0  0  0  0  0  0  0  0  0
    7.3625    1.2458    0.0000 C   0  0  0  0  0  0  0  0  0  0  0  0
    6.3792    0.5333    0.0000 O   0  0  0  0  0  0  0  0  0  0  0  0
    7.5917    0.5333    0.0000 O   0  0  0  0  0  0  0  0  0  0  0  0
    6.9875    0.0875    0.0000 C   0  0  0  0  0  0  0  0  0  0  0  0
    2.8625    3.8458    0.0000 O   0  0  0  0  0  0  0  0  0  0  0  0
    6.2375    1.8958    0.0000 C   0  0  0  0  0  0  0  0  0  0  0  0
    4.3625    3.8458    0.0000 C   0  0  0  0  0  0  0  0  0  0  0  0
    4.3625    2.5458    0.0000 C   0  0  0  0  0  0  0  0  0  0  0  0
    6.6125    2.5458    0.0000 C   0  0  0  0  0  0  0  0  0  0  0  0
    6.2375    3.1958    0.0000 C   0  0  0  0  0  0  0  0  0  0  0  0
    0.7917    1.1708    0.0000 F   0  0  0  0  0  0  0  0  0  0  0  0
    1.0542    2.6458    0.0000 F   0  0  0  0  0  0  0  0  0  0  0  0
    0.2500    2.0208    0.0000 F   0  0  0  0  0  0  0  0  0  0  0  0
    7.7375    1.8958    0.0000 C   0  0  0  0  0  0  0  0  0  0  0  0
    5.1125    3.8458    0.0000 C   0  0  0  0  0  0  0  0  0  0  0  0
    5.1125    2.5458    0.0000 C   0  0  0  0  0  0  0  0  0  0  0  0
    7.3625    2.5458    0.0000 C   0  0  0  0  0  0  0  0  0  0  0  0
    3.2375    1.8958    0.0000 C   0  0  0  0  0  0  0  0  0  0  0  0
    2.1125    1.2458    0.0000 C   0  0  0  0  0  0  0  0  0  0  0  0
    2.8625    1.2458    0.0000 C   0  0  0  0  0  0  0  0  0  0  0  0
  2  5  1  0  0  0  0
  3  1  1  0  0  0  0
  4  1  1  0  0  0  0
  5  8  1  0  0  0  0
  6 24  1  0  0  0  0
  6 23  1  0  0  0  0
  7 14  1  0  0  0  0
  7  9  2  0  0  0  0
  8  4  2  0  0  0  0
  9 22  1  0  0  0  0
 10  7  1  0  0  0  0
 11  9  1  0  0  0  0
 12 10  1  0  0  0  0
 12 11  1  0  0  0  0
 13  1  2  0  0  0  0
 14 17  2  0  0  0  0
 15  3  1  0  0  0  0
 16  3  1  0  0  0  0
 17 18  1  0  0  0  0
 18  6  1  0  0  0  0
 19  2  1  0  0  0  0
 20  2  1  0  0  0  0
 21  2  1  0  0  0  0
 22 25  2  0  0  0  0
 23 15  1  0  0  0  0
 24 16  1  0  0  0  0
 25 17  1  0  0  0  0
 26  4  1  0  0  0  0
 27 28  1  0  0  0  0
 27  5  2  0  0  0  0
 28 26  2  0  0  0  0
M  END
>  <ID>
7944168

>  <Supplier>
ChemBridge

>  <clogP>
3.635000000000000e+000

>  <RB>
3

>  <tPSA>
4.201000000000001e+001

>  <Hacc>
4

>  <Hdon>
0

>  <LogSw>
-5.164999999999997e+000

>  <Group>
2

>  <Core>
165

$$$$
6247832
 OpenBabel03312015312D

 33 35  0  0  0  0  0  0  0  0999 V2000
    4.2667   -3.6417    0.0000 C   0  0  0  0  0  0  0  0  0  0  0  0
    3.4417   -3.6542    0.0000 C   0  0  0  0  0  0  0  0  0  0  0  0
    3.8750   -4.9125    0.0000 C   0  0  0  0  0  0  0  0  0  0  0  0
    4.5292   -4.4167    0.0000 S   0  0  0  0  0  0  0  0  0  0  0  0
    3.2042   -4.4417    0.0000 C   0  0  0  0  0  0  0  0  0  0  0  0
    3.8875   -5.7375    0.0000 C   0  0  0  0  0  0  0  0  0  0  0  0
    2.9500   -2.9917    0.0000 C   0  0  0  0  0  0  0  0  0  0  0  0
    6.0500   -6.9542    0.0000 C   0  0  0  0  0  0  0  0  0  0  0  0
    4.7375   -2.9667    0.0000 N   0  0  0  0  0  0  0  0  0  0  0  0
    5.3417   -7.3667    0.0000 C   0  0  0  0  0  0  0  0  0  0  0  0
    6.0417   -6.1292    0.0000 C   0  0  0  0  0  0  0  0  0  0  0  0
    4.6042   -6.1417    0.0000 C   0  0  0  0  0  0  0  0  0  0  0  0
    5.3250   -5.7250    0.0000 C   0  0  0  0  0  0  0  0  0  0  0  0
    4.6167   -6.9667    0.0000 C   0  0  0  0  0  0  0  0  0  0  0  0
    2.4167   -4.7042    0.0000 O   0  0  0  0  0  0  0  0  0  0  0  0
    3.2667   -2.2375    0.0000 O   0  0  0  0  0  0  0  0  0  0  0  0
    5.5625   -3.0417    0.0000 C   0  0  0  0  0  0  0  0  0  0  0  0
    6.7667   -7.3542    0.0000 O   0  0  0  0  0  0  0  0  0  0  0  0
    2.1292   -3.0917    0.0000 O   0  0  0  0  0  0  0  0  0  0  0  0
    5.3417   -8.2000    0.0000 O   0  0  0  0  0  0  0  0  0  0  0  0
    6.7500   -5.7125    0.0000 O   0  0  0  0  0  0  0  0  0  0  0  0
    7.2000   -3.1917    0.0000 C   0  0  0  0  0  0  0  0  0  0  0  0
    5.9042   -3.7917    0.0000 C   0  0  0  0  0  0  0  0  0  0  0  0
    6.0292   -2.3667    0.0000 C   0  0  0  0  0  0  0  0  0  0  0  0
    6.7250   -3.8667    0.0000 C   0  0  0  0  0  0  0  0  0  0  0  0
    6.8542   -2.4417    0.0000 C   0  0  0  0  0  0  0  0  0  0  0  0
    8.0167   -3.2667    0.0000 O   0  0  0  0  0  0  0  0  0  0  0  0
    1.6292   -2.4375    0.0000 C   0  0  0  0  0  0  0  0  0  0  0  0
    7.4792   -6.9417    0.0000 C   0  0  0  0  0  0  0  0  0  0  0  0
    6.0667   -8.6042    0.0000 C   0  0  0  0  0  0  0  0  0  0  0  0
    6.7417   -4.8792    0.0000 C   0  0  0  0  0  0  0  0  0  0  0  0
    8.4917   -2.5917    0.0000 C   0  0  0  0  0  0  0  0  0  0  0  0
    0.8167   -2.5375    0.0000 C   0  0  0  0  0  0  0  0  0  0  0  0
  2  1  2  0  0  0  0
  3  4  1  0  0  0  0
  4  1  1  0  0  0  0
  5  2  1  0  0  0  0
  5  3  1  0  0  0  0
  6  3  2  0  0  0  0
  7  2  1  0  0  0  0
  8 10  1  0  0  0  0
  9  1  1  0  0  0  0
 10 14  2  0  0  0  0
 11 13  1  0  0  0  0
 11  8  2  0  0  0  0
 12  6  1  0  0  0  0
 13 12  2  0  0  0  0
 14 12  1  0  0  0  0
 15  5  2  0  0  0  0
 16  7  2  0  0  0  0
 17  9  1  0  0  0  0
 18  8  1  0  0  0  0
 19  7  1  0  0  0  0
 20 10  1  0  0  0  0
 21 11  1  0  0  0  0
 22 26  1  0  0  0  0
 23 17  2  0  0  0  0
 24 17  1  0  0  0  0
 25 23  1  0  0  0  0
 25 22  2  0  0  0  0
 26 24  2  0  0  0  0
 27 22  1  0  0  0  0
 28 19  1  0  0  0  0
 29 18  1  0  0  0  0
 30 20  1  0  0  0  0
 31 21  1  0  0  0  0
 32 27  1  0  0  0  0
 33 28  1  0  0  0  0
M  END
>  <ID>
6247832

>  <Supplier>
ChemBridge

>  <clogP>
3.140000000000000e+000

>  <RB>
4

>  <tPSA>
9.231999999999999e+001

>  <Hacc>
7

>  <Hdon>
1

>  <LogSw>
-5.318000000000000e+000

>  <Group>
3

>  <Core>
286

$$$$
9076583
 OpenBabel03312015312D

 19 20  0  0  0  0  0  0  0  0999 V2000
    4.6625   -3.2375    0.0000 C   0  0  0  0  0  0  0  0  0  0  0  0
    5.1417   -3.9042    0.0000 O   0  0  0  0  0  0  0  0  0  0  0  0
    5.1417   -2.5667    0.0000 C   0  0  0  0  0  0  0  0  0  0  0  0
    5.9375   -3.6500    0.0000 C   0  0  0  0  0  0  0  0  0  0  0  0
    5.9375   -2.8167    0.0000 C   0  0  0  0  0  0  0  0  0  0  0  0
    3.8292   -3.2375    0.0000 C   0  0  0  0  0  0  0  0  0  0  0  0
    7.3625   -3.8042    0.0000 N   0  0  0  0  0  0  0  0  0  0  0  0
    8.0292   -4.2875    0.0000 C   0  0  0  0  0  0  0  0  0  0  0  0
    3.4167   -2.5167    0.0000 C   0  0  0  0  0  0  0  0  0  0  0  0
    3.4167   -3.9542    0.0000 C   0  0  0  0  0  0  0  0  0  0  0  0
    6.6000   -4.1292    0.0000 C   0  0  0  0  0  0  0  0  0  0  0  0
    2.1667   -3.2375    0.0000 C   0  0  0  0  0  0  0  0  0  0  0  0
    2.5875   -3.9542    0.0000 C   0  0  0  0  0  0  0  0  0  0  0  0
    2.5875   -2.5167    0.0000 C   0  0  0  0  0  0  0  0  0  0  0  0
    1.3417   -3.2375    0.0000 Cl  0  0  0  0  0  0  0  0  0  0  0  0
    9.4500   -4.0667    0.0000 O   0  0  0  0  0  0  0  0  0  0  0  0
    8.6750   -3.7667    0.0000 C   0  0  0  0  0  0  0  0  0  0  0  0
    7.4875   -4.9167    0.0000 C   0  0  0  0  0  0  0  0  0  0  0  0
    8.6042   -4.8792    0.0000 C   0  0  0  0  0  0  0  0  0  0  0  0
  2  1  1  0  0  0  0
  3  1  2  0  0  0  0
  4  2  1  0  0  0  0
  5  3  1  0  0  0  0
  5  4  2  0  0  0  0
  6  1  1  0  0  0  0
  7 11  1  0  0  0  0
  8  7  1  0  0  0  0
  9  6  1  0  0  0  0
 10  6  2  0  0  0  0
 11  4  1  0  0  0  0
 12 13  2  0  0  0  0
 13 10  1  0  0  0  0
 14  9  2  0  0  0  0
 14 12  1  0  0  0  0
 15 12  1  0  0  0  0
 16 17  1  0  0  0  0
 17  8  1  0  0  0  0
 18  8  1  0  0  0  0
 19  8  1  0  0  0  0
M  END
>  <ID>
9076583

>  <Supplier>
ChemBridge

>  <clogP>
1.440000000000000e+000

>  <RB>
5

>  <tPSA>
4.540000000000000e+001

>  <Hacc>
3

>  <Hdon>
2

>  <LogSw>
-2.975000000000000e+000

>  <Group>
2

$$$$
5737652
 OpenBabel03312015312D

 25 27  0  0  0  0  0  0  0  0999 V2000
    1.0500    0.0083    0.0000 N   0  0  0  0  0  0  0  0  0  0  0  0
    1.0500   -0.7417    0.0000 C   0  0  0  0  0  0  0  0  0  0  0  0
    2.3417    0.0083    0.0000 C   0  0  0  0  0  0  0  0  0  0  0  0
    2.3417   -0.7417    0.0000 C   0  0  0  0  0  0  0  0  0  0  0  0
    1.6917   -1.1167    0.0000 S   0  0  0  0  0  0  0  0  0  0  0  0
    4.2917   -3.3667    0.0000 N   0  3  0  0  0  0  0  0  0  0  0  0
    3.6500   -2.9917    0.0000 C   0  0  0  0  0  0  0  0  0  0  0  0
    0.5167    0.5375    0.0000 C   0  0  0  0  0  0  0  0  0  0  0  0
    2.9917   -1.1167    0.0000 C   0  0  0  0  0  0  0  0  0  0  0  0
    0.4000   -1.1167    0.0000 S   0  0  0  0  0  0  0  0  0  0  0  0
   -0.2083    0.3458    0.0000 C   0  0  0  0  0  0  0  0  0  0  0  0
    2.9917   -3.3667    0.0000 C   0  0  0  0  0  0  0  0  0  0  0  0
    3.6417   -2.2417    0.0000 C   0  0  0  0  0  0  0  0  0  0  0  0
    4.2917   -4.1167    0.0000 O   0  5  0  0  0  0  0  0  0  0  0  0
    4.9417   -2.9917    0.0000 O   0  0  0  0  0  0  0  0  0  0  0  0
    2.8792    0.5375    0.0000 O   0  0  0  0  0  0  0  0  0  0  0  0
    2.9917   -1.8667    0.0000 C   0  0  0  0  0  0  0  0  0  0  0  0
    2.3417   -2.9917    0.0000 C   0  0  0  0  0  0  0  0  0  0  0  0
   -0.7375    0.8708    0.0000 C   0  0  0  0  0  0  0  0  0  0  0  0
    2.3417   -2.2417    0.0000 C   0  0  0  0  0  0  0  0  0  0  0  0
    0.7125    1.2625    0.0000 C   0  0  0  0  0  0  0  0  0  0  0  0
    2.9917   -4.1167    0.0000 O   0  0  0  0  0  0  0  0  0  0  0  0
   -1.4625    0.6833    0.0000 Cl  0  0  0  0  0  0  0  0  0  0  0  0
    0.1792    1.7958    0.0000 C   0  0  0  0  0  0  0  0  0  0  0  0
   -0.5458    1.5958    0.0000 C   0  0  0  0  0  0  0  0  0  0  0  0
  2  1  1  0  0  0  0
  3  1  1  0  0  0  0
  4  3  1  0  0  0  0
  4  5  1  0  0  0  0
  5  2  1  0  0  0  0
  6  7  1  0  0  0  0
  7 13  2  0  0  0  0
  7 12  1  0  0  0  0
  8  1  1  0  0  0  0
  9  4  2  0  0  0  0
 10  2  2  0  0  0  0
 11  8  2  0  0  0  0
 12 18  2  0  0  0  0
 13 17  1  0  0  0  0
 14  6  1  0  0  0  0
 15  6  2  0  0  0  0
 16  3  2  0  0  0  0
 17  9  1  0  0  0  0
 18 20  1  0  0  0  0
 19 11  1  0  0  0  0
 19 25  2  0  0  0  0
 20 17  2  0  0  0  0
 21  8  1  0  0  0  0
 22 12  1  0  0  0  0
 23 19  1  0  0  0  0
 24 21  2  0  0  0  0
 25 24  1  0  0  0  0
M  CHG  2   6   1  14  -1
M  END
>  <ID>
5737652

>  <Supplier>
ChemBridge

>  <clogP>
4.440000000000000e+000

>  <RB>
2

>  <tPSA>
8.368000000000002e+001

>  <Hacc>
4

>  <Hdon>
1

>  <LogSw>
-5.856000000000000e+000

>  <Group>
1

>  <Core>
001

$$$$
9076581
 OpenBabel03312015312D

 25 27  0  0  0  0  0  0  0  0999 V2000
    1.7875    4.8417    0.0000 C   0  0  0  0  0  0  0  0  0  0  0  0
    1.3500    5.4542    0.0000 N   0  0  0  0  0  0  0  0  0  0  0  0
    1.3500    4.2417    0.0000 N   0  0  0  0  0  0  0  0  0  0  0  0
    0.6292    4.4667    0.0000 N   0  0  0  0  0  0  0  0  0  0  0  0
    0.6292    5.2167    0.0000 N   0  0  0  0  0  0  0  0  0  0  0  0
    2.5375    4.8417    0.0000 N   0  0  0  0  0  0  0  0  0  0  0  0
    4.7875    3.5500    0.0000 C   0  0  0  0  0  0  0  0  0  0  0  0
    5.1625    4.1917    0.0000 C   0  0  0  0  0  0  0  0  0  0  0  0
    5.9125    4.1917    0.0000 O   0  0  0  0  0  0  0  0  0  0  0  0
    4.0375    3.5500    0.0000 C   0  0  0  0  0  0  0  0  0  0  0  0
    4.7875    4.8417    0.0000 C   0  0  0  0  0  0  0  0  0  0  0  0
    3.6625    4.1917    0.0000 C   0  0  0  0  0  0  0  0  0  0  0  0
    2.9125    4.1917    0.0000 C   0  0  0  0  0  0  0  0  0  0  0  0
    1.5792    6.1667    0.0000 C   0  0  0  0  0  0  0  0  0  0  0  0
    6.2875    4.8417    0.0000 C   0  0  0  0  0  0  0  0  0  0  0  0
    4.0375    4.8417    0.0000 C   0  0  0  0  0  0  0  0  0  0  0  0
    5.1625    2.9000    0.0000 O   0  0  0  0  0  0  0  0  0  0  0  0
    7.0375    4.8417    0.0000 C   0  0  0  0  0  0  0  0  0  0  0  0
    4.7875    2.2583    0.0000 C   0  0  0  0  0  0  0  0  0  0  0  0
    7.4125    4.1917    0.0000 C   0  0  0  0  0  0  0  0  0  0  0  0
    7.4125    5.4917    0.0000 C   0  0  0  0  0  0  0  0  0  0  0  0
    5.1625    1.6083    0.0000 C   0  0  0  0  0  0  0  0  0  0  0  0
    8.1625    5.4917    0.0000 C   0  0  0  0  0  0  0  0  0  0  0  0
    8.1625    4.1917    0.0000 C   0  0  0  0  0  0  0  0  0  0  0  0
    8.5375    4.8417    0.0000 C   0  0  0  0  0  0  0  0  0  0  0  0
  2  1  1  0  0  0  0
  3  1  2  0  0  0  0
  4  3  1  0  0  0  0
  5  2  1  0  0  0  0
  5  4  2  0  0  0  0
  6  1  1  0  0  0  0
  7 10  2  0  0  0  0
  7  8  1  0  0  0  0
  8 11  2  0  0  0  0
  9  8  1  0  0  0  0
 10 12  1  0  0  0  0
 11 16  1  0  0  0  0
 12 13  1  0  0  0  0
 13  6  1  0  0  0  0
 14  2  1  0  0  0  0
 15  9  1  0  0  0  0
 16 12  2  0  0  0  0
 17  7  1  0  0  0  0
 18 15  1  0  0  0  0
 19 17  1  0  0  0  0
 20 18  1  0  0  0  0
 21 18  2  0  0  0  0
 22 19  1  0  0  0  0
 23 21  1  0  0  0  0
 24 20  2  0  0  0  0
 24 25  1  0  0  0  0
 25 23  2  0  0  0  0
M  END
>  <ID>
9076581

>  <Supplier>
ChemBridge

>  <clogP>
3.559000000000000e+000

>  <RB>
6

>  <tPSA>
7.409000000000000e+001

>  <Hacc>
5

>  <Hdon>
1

>  <LogSw>
-4.714000000000000e+000

>  <Group>
2

$$$$
7981973
 OpenBabel03312015312D

 20 21  0  0  0  0  0  0  0  0999 V2000
    7.8667    0.6333    0.0000 C   0  0  0  0  0  0  0  0  0  0  0  0
    8.2417    1.2833    0.0000 C   0  0  0  0  0  0  0  0  0  0  0  0
    7.1375    0.7958    0.0000 N   0  0  0  0  0  0  0  0  0  0  0  0
    7.0542    1.5375    0.0000 N   0  0  0  0  0  0  0  0  0  0  0  0
    8.1750   -0.0500    0.0000 N   0  3  0  0  0  0  0  0  0  0  0  0
    7.7417    1.8458    0.0000 C   0  0  0  0  0  0  0  0  0  0  0  0
    5.7542    1.5375    0.0000 C   0  0  0  0  0  0  0  0  0  0  0  0
    8.9917    1.3625    0.0000 C   0  0  0  0  0  0  0  0  0  0  0  0
    6.4042    1.9125    0.0000 C   0  0  0  0  0  0  0  0  0  0  0  0
    5.1042    1.9125    0.0000 C   0  0  0  0  0  0  0  0  0  0  0  0
    9.7375    1.4458    0.0000 N   0  0  0  0  0  0  0  0  0  0  0  0
    7.7292   -0.6542    0.0000 O   0  5  0  0  0  0  0  0  0  0  0  0
    8.9167   -0.1292    0.0000 O   0  0  0  0  0  0  0  0  0  0  0  0
    4.4542    1.5375    0.0000 C   0  0  0  0  0  0  0  0  0  0  0  0
    5.1042    2.6625    0.0000 Cl  0  0  0  0  0  0  0  0  0  0  0  0
    3.8042    1.9125    0.0000 Cl  0  0  0  0  0  0  0  0  0  0  0  0
    7.9000    2.5833    0.0000 C   0  0  0  0  0  0  0  0  0  0  0  0
    5.7542    0.7875    0.0000 C   0  0  0  0  0  0  0  0  0  0  0  0
    5.1042    0.4125    0.0000 C   0  0  0  0  0  0  0  0  0  0  0  0
    4.4542    0.7875    0.0000 C   0  0  0  0  0  0  0  0  0  0  0  0
  2  1  1  0  0  0  0
  3  1  2  0  0  0  0
  4  3  1  0  0  0  0
  4  6  1  0  0  0  0
  5  1  1  0  0  0  0
  6  2  2  0  0  0  0
  7  9  1  0  0  0  0
  8  2  1  0  0  0  0
  9  4  1  0  0  0  0
 10  7  1  0  0  0  0
 11  8  3  0  0  0  0
 12  5  1  0  0  0  0
 13  5  2  0  0  0  0
 14 10  2  0  0  0  0
 14 20  1  0  0  0  0
 15 10  1  0  0  0  0
 16 14  1  0  0  0  0
 17  6  1  0  0  0  0
 18  7  2  0  0  0  0
 19 18  1  0  0  0  0
 20 19  2  0  0  0  0
M  CHG  2   5   1  12  -1
M  END
>  <ID>
7981973

>  <Supplier>
ChemBridge

>  <clogP>
3.176000000000000e+000

>  <RB>
2

>  <tPSA>
8.475000000000011e+001

>  <Hacc>
4

>  <Hdon>
0

>  <LogSw>
-4.836000000000000e+000

>  <Group>
1

$$$$
6728818
 OpenBabel03312015312D

 22 23  0  0  0  0  0  0  0  0999 V2000
    5.3125   -3.0667    0.0000 C   0  0  0  0  0  0  0  0  0  0  0  0
    4.5417   -2.6167    0.0000 N   0  0  0  0  0  0  0  0  0  0  0  0
    1.6417   -2.6375    0.0000 C   0  0  0  0  0  0  0  0  0  0  0  0
    3.7625   -3.0625    0.0000 C   0  0  0  0  0  0  0  0  0  0  0  0
    6.0917   -2.6292    0.0000 C   0  0  0  0  0  0  0  0  0  0  0  0
    2.3500   -3.0500    0.0000 O   0  0  0  0  0  0  0  0  0  0  0  0
    0.9292   -3.0417    0.0000 C   0  0  0  0  0  0  0  0  0  0  0  0
    1.6500   -1.8167    0.0000 C   0  0  0  0  0  0  0  0  0  0  0  0
    3.7542   -3.9625    0.0000 O   0  0  0  0  0  0  0  0  0  0  0  0
    0.2292   -2.6250    0.0000 C   0  0  0  0  0  0  0  0  0  0  0  0
    3.0542   -2.6417    0.0000 C   0  0  0  0  0  0  0  0  0  0  0  0
    6.0917   -1.7292    0.0000 C   0  0  0  0  0  0  0  0  0  0  0  0
    0.9500   -1.4042    0.0000 C   0  0  0  0  0  0  0  0  0  0  0  0
    0.2375   -1.8042    0.0000 C   0  0  0  0  0  0  0  0  0  0  0  0
    5.3042   -3.9667    0.0000 C   0  0  0  0  0  0  0  0  0  0  0  0
    6.8625   -3.0792    0.0000 C   0  0  0  0  0  0  0  0  0  0  0  0
    0.9250   -3.8667    0.0000 C   0  0  0  0  0  0  0  0  0  0  0  0
    6.8750   -1.2875    0.0000 C   0  0  0  0  0  0  0  0  0  0  0  0
    5.3250   -1.2792    0.0000 C   0  0  0  0  0  0  0  0  0  0  0  0
    0.9542   -0.5792    0.0000 C   0  0  0  0  0  0  0  0  0  0  0  0
    6.0792   -4.4167    0.0000 C   0  0  0  0  0  0  0  0  0  0  0  0
    6.8542   -3.9750    0.0000 C   0  0  0  0  0  0  0  0  0  0  0  0
  2  1  1  0  0  0  0
  3  6  1  0  0  0  0
  4  2  1  0  0  0  0
  5  1  2  0  0  0  0
  6 11  1  0  0  0  0
  7  3  2  0  0  0  0
  8  3  1  0  0  0  0
  9  4  2  0  0  0  0
 10  7  1  0  0  0  0
 10 14  2  0  0  0  0
 11  4  1  0  0  0  0
 12  5  1  0  0  0  0
 13  8  2  0  0  0  0
 14 13  1  0  0  0  0
 15  1  1  0  0  0  0
 16  5  1  0  0  0  0
 17  7  1  0  0  0  0
 18 12  1  0  0  0  0
 19 12  1  0  0  0  0
 20 13  1  0  0  0  0
 21 15  2  0  0  0  0
 22 21  1  0  0  0  0
 22 16  2  0  0  0  0
M  END
>  <ID>
6728818

>  <Supplier>
ChemBridge

>  <clogP>
4.200000000000000e+000

>  <RB>
4

>  <tPSA>
3.833000000000000e+001

>  <Hacc>
2

>  <Hdon>
1

>  <LogSw>
-4.956000000000000e+000

>  <Group>
2

>  <Core>
315

$$$$
6784018
 OpenBabel03312015312D

 28 30  0  0  0  0  0  0  0  0999 V2000
    2.8542   -1.5000    0.0000 S   0  0  0  0  0  0  0  0  0  0  0  0
    2.8500   -2.3292    0.0000 N   0  0  0  0  0  0  0  0  0  0  0  0
    3.5625   -2.7417    0.0000 C   0  0  0  0  0  0  0  0  0  0  0  0
    4.2792   -2.3292    0.0000 C   0  0  0  0  0  0  0  0  0  0  0  0
    3.6792   -1.5000    0.0000 O   0  0  0  0  0  0  0  0  0  0  0  0
    2.0250   -1.4917    0.0000 O   0  0  0  0  0  0  0  0  0  0  0  0
    2.8500   -0.6667    0.0000 C   0  0  0  0  0  0  0  0  0  0  0  0
    6.4292   -2.7625    0.0000 C   0  0  0  0  0  0  0  0  0  0  0  0
    2.1292   -2.7375    0.0000 C   0  0  0  0  0  0  0  0  0  0  0  0
    6.5167   -3.5792    0.0000 O   0  0  0  0  0  0  0  0  0  0  0  0
    5.0000   -2.7500    0.0000 N   0  0  0  0  0  0  0  0  0  0  0  0
    7.2042   -2.4250    0.0000 C   0  0  0  0  0  0  0  0  0  0  0  0
    7.3292   -3.7625    0.0000 C   0  0  0  0  0  0  0  0  0  0  0  0
    4.2875   -1.5042    0.0000 O   0  0  0  0  0  0  0  0  0  0  0  0
    7.7500   -3.0500    0.0000 C   0  0  0  0  0  0  0  0  0  0  0  0
    5.7250   -2.3417    0.0000 C   0  0  0  0  0  0  0  0  0  0  0  0
    1.4167   -2.3167    0.0000 C   0  0  0  0  0  0  0  0  0  0  0  0
   -0.0208   -1.4792    0.0000 C   0  0  0  0  0  0  0  0  0  0  0  0
   -0.7333   -1.0667    0.0000 Br  0  0  0  0  0  0  0  0  0  0  0  0
    1.4167   -1.4917    0.0000 C   0  0  0  0  0  0  0  0  0  0  0  0
    0.7000   -2.7292    0.0000 C   0  0  0  0  0  0  0  0  0  0  0  0
   -0.0208   -2.3167    0.0000 C   0  0  0  0  0  0  0  0  0  0  0  0
    0.7042   -1.0667    0.0000 C   0  0  0  0  0  0  0  0  0  0  0  0
    2.1292   -0.2542    0.0000 C   0  0  0  0  0  0  0  0  0  0  0  0
    3.5667   -0.2500    0.0000 C   0  0  0  0  0  0  0  0  0  0  0  0
    3.5625    0.5833    0.0000 C   0  0  0  0  0  0  0  0  0  0  0  0
    2.1250    0.5708    0.0000 C   0  0  0  0  0  0  0  0  0  0  0  0
    2.8417    0.9875    0.0000 C   0  0  0  0  0  0  0  0  0  0  0  0
  2  1  1  0  0  0  0
  3  2  1  0  0  0  0
  4  3  1  0  0  0  0
  5  1  2  0  0  0  0
  6  1  2  0  0  0  0
  7  1  1  0  0  0  0
  8 16  1  0  0  0  0
  9  2  1  0  0  0  0
 10  8  1  0  0  0  0
 11  4  1  0  0  0  0
 12  8  2  0  0  0  0
 13 10  1  0  0  0  0
 13 15  2  0  0  0  0
 14  4  2  0  0  0  0
 15 12  1  0  0  0  0
 16 11  1  0  0  0  0
 17  9  1  0  0  0  0
 18 22  1  0  0  0  0
 18 23  2  0  0  0  0
 19 18  1  0  0  0  0
 20 17  2  0  0  0  0
 21 17  1  0  0  0  0
 22 21  2  0  0  0  0
 23 20  1  0  0  0  0
 24  7  1  0  0  0  0
 25  7  2  0  0  0  0
 26 25  1  0  0  0  0
 27 24  2  0  0  0  0
 28 26  2  0  0  0  0
 28 27  1  0  0  0  0
M  END
>  <ID>
6784018

>  <Supplier>
ChemBridge

>  <clogP>
4.190000000000000e+000

>  <RB>
7

>  <tPSA>
7.962000000000001e+001

>  <Hacc>
5

>  <Hdon>
1

>  <LogSw>
-6.154999999999998e+000

>  <Group>
2

>  <Core>
084

$$$$
5131081
 OpenBabel03312015312D

 15 17  0  0  0  0  0  0  0  0999 V2000
   -1.6125   -0.2375    0.0000 C   0  0  0  0  0  0  0  0  0  0  0  0
   -2.2500   -0.6000    0.0000 C   0  0  0  0  0  0  0  0  0  0  0  0
   -2.2500   -1.3167    0.0000 N   0  0  0  0  0  0  0  0  0  0  0  0
   -1.6125    0.4833    0.0000 C   0  0  0  0  0  0  0  0  0  0  0  0
   -3.4958   -0.6000    0.0000 N   0  0  0  0  0  0  0  0  0  0  0  0
   -2.8708   -0.2375    0.0000 C   0  0  0  0  0  0  0  0  0  0  0  0
   -0.9333   -0.4500    0.0000 N   0  0  0  0  0  0  0  0  0  0  0  0
   -0.5333    0.1208    0.0000 S   0  0  0  0  0  0  0  0  0  0  0  0
   -2.8708   -1.6792    0.0000 C   0  0  0  0  0  0  0  0  0  0  0  0
   -3.4958   -1.3167    0.0000 C   0  0  0  0  0  0  0  0  0  0  0  0
   -0.9333    0.6958    0.0000 N   0  0  0  0  0  0  0  0  0  0  0  0
   -2.2333    0.8458    0.0000 C   0  0  0  0  0  0  0  0  0  0  0  0
   -2.8500    0.4833    0.0000 C   0  0  0  0  0  0  0  0  0  0  0  0
   -2.8708   -2.4000    0.0000 O   0  0  0  0  0  0  0  0  0  0  0  0
   -4.1333   -1.6792    0.0000 O   0  0  0  0  0  0  0  0  0  0  0  0
  2  1  1  0  0  0  0
  3  2  1  0  0  0  0
  4  1  1  0  0  0  0
  5  6  1  0  0  0  0
  6  2  2  0  0  0  0
  6 13  1  0  0  0  0
  7  1  2  0  0  0  0
  8  7  1  0  0  0  0
  8 11  1  0  0  0  0
  9  3  2  0  0  0  0
 10  5  2  0  0  0  0
 10  9  1  0  0  0  0
 11  4  2  0  0  0  0
 12  4  1  0  0  0  0
 13 12  2  0  0  0  0
 14  9  1  0  0  0  0
 15 10  1  0  0  0  0
M  END
>  <ID>
5131081

>  <Supplier>
ChemBridge

>  <clogP>
2.760000000000000e+000

>  <RB>
0

>  <tPSA>
9.202000000000000e+001

>  <Hacc>
6

>  <Hdon>
2

>  <LogSw>
-4.274000000000000e+000

>  <Group>
3

$$$$
5131080
 OpenBabel03312015312D

 17 19  0  0  0  0  0  0  0  0999 V2000
    1.0667    0.4000    0.0000 C   0  0  0  0  0  0  0  0  0  0  0  0
    1.7875    0.8208    0.0000 N   0  0  0  0  0  0  0  0  0  0  0  0
    1.7875    1.6333    0.0000 N   0  0  0  0  0  0  0  0  0  0  0  0
    0.3500    0.8208    0.0000 N   0  0  0  0  0  0  0  0  0  0  0  0
    0.3500    1.6625    0.0000 N   0  0  0  0  0  0  0  0  0  0  0  0
    2.4667   -2.0542    0.0000 C   0  0  0  0  0  0  0  0  0  0  0  0
    3.7292   -2.4792    0.0000 S   0  0  0  0  0  0  0  0  0  0  0  0
    3.2500   -1.8167    0.0000 N   0  0  0  0  0  0  0  0  0  0  0  0
    2.4667   -2.9000    0.0000 C   0  0  0  0  0  0  0  0  0  0  0  0
    3.2500   -3.1375    0.0000 N   0  0  0  0  0  0  0  0  0  0  0  0
    1.7667   -1.6375    0.0000 C   0  0  0  0  0  0  0  0  0  0  0  0
    1.0500   -0.4042    0.0000 N   0  0  0  0  0  0  0  0  0  0  0  0
    0.4792    0.1458    0.0000 N   0  0  0  0  0  0  0  0  0  0  0  0
    1.0500   -2.0542    0.0000 C   0  0  0  0  0  0  0  0  0  0  0  0
    1.0500   -2.9000    0.0000 C   0  0  0  0  0  0  0  0  0  0  0  0
    1.7667   -3.2875    0.0000 C   0  0  0  0  0  0  0  0  0  0  0  0
    1.7667   -0.8292    0.0000 C   0  0  0  0  0  0  0  0  0  0  0  0
  2  1  2  0  0  0  0
  3  2  1  0  0  0  0
  4  1  1  0  0  0  0
  5  4  1  0  0  0  0
  5  3  2  0  0  0  0
  6 11  1  0  0  0  0
  7  8  1  0  0  0  0
  8  6  2  0  0  0  0
  9  6  1  0  0  0  0
 10  9  2  0  0  0  0
 10  7  1  0  0  0  0
 11 17  1  0  0  0  0
 12 13  1  0  0  0  0
 13  1  1  0  0  0  0
 14 11  2  0  0  0  0
 15 14  1  0  0  0  0
 16 15  2  0  0  0  0
 16  9  1  0  0  0  0
 17 12  2  0  0  0  0
M  END
>  <ID>
5131080

>  <Supplier>
ChemBridge

>  <clogP>
-9.000000000000000e-002

>  <RB>
3

>  <tPSA>
1.046300000000000e+002

>  <Hacc>
6

>  <Hdon>
2

>  <LogSw>
-2.230000000000000e+000

>  <Group>
3

$$$$
5532752
 OpenBabel03312015312D

 29 32  0  0  0  0  0  0  0  0999 V2000
   -0.5208   -0.1875    0.0000 N   0  0  0  0  0  0  0  0  0  0  0  0
    0.0000    0.1333    0.0000 C   0  0  0  0  0  0  0  0  0  0  0  0
    0.0000    0.7333    0.0000 C   0  0  0  0  0  0  0  0  0  0  0  0
   -1.0458    0.1333    0.0000 C   0  0  0  0  0  0  0  0  0  0  0  0
   -0.0208   -1.6875    0.0000 C   0  0  0  0  0  0  0  0  0  0  0  0
   -0.5208    1.0333    0.0000 C   0  0  0  0  0  0  0  0  0  0  0  0
   -0.5500   -1.9542    0.0000 N   0  3  0  0  0  0  0  0  0  0  0  0
   -1.0458    0.7333    0.0000 C   0  0  0  0  0  0  0  0  0  0  0  0
   -0.5208   -0.7875    0.0000 O   0  0  0  0  0  0  0  0  0  0  0  0
    1.5292   -2.0292    0.0000 N   0  3  0  0  0  0  0  0  0  0  0  0
   -0.0125   -1.0875    0.0000 C   0  0  0  0  0  0  0  0  0  0  0  0
    0.4875   -2.0167    0.0000 C   0  0  0  0  0  0  0  0  0  0  0  0
    1.0167   -1.7167    0.0000 C   0  0  0  0  0  0  0  0  0  0  0  0
    0.5375    1.0333    0.0000 C   0  0  0  0  0  0  0  0  0  0  0  0
    0.5542   -0.1875    0.0000 O   0  0  0  0  0  0  0  0  0  0  0  0
   -1.1000   -1.6792    0.0000 O   0  5  0  0  0  0  0  0  0  0  0  0
    1.5667   -2.6500    0.0000 O   0  5  0  0  0  0  0  0  0  0  0  0
   -1.5833   -0.1875    0.0000 O   0  0  0  0  0  0  0  0  0  0  0  0
   -0.6125   -2.5542    0.0000 O   0  0  0  0  0  0  0  0  0  0  0  0
    2.0792   -1.7792    0.0000 O   0  0  0  0  0  0  0  0  0  0  0  0
   -0.5208    1.6333    0.0000 C   0  0  0  0  0  0  0  0  0  0  0  0
    0.5167   -0.7875    0.0000 C   0  0  0  0  0  0  0  0  0  0  0  0
    1.0375   -1.1042    0.0000 C   0  0  0  0  0  0  0  0  0  0  0  0
    0.5375    1.6333    0.0000 C   0  0  0  0  0  0  0  0  0  0  0  0
    0.0000    1.9333    0.0000 C   0  0  0  0  0  0  0  0  0  0  0  0
   -1.5625    1.0333    0.0000 C   0  0  0  0  0  0  0  0  0  0  0  0
    1.0792    0.7125    0.0000 I   0  0  0  0  0  0  0  0  0  0  0  0
   -1.5625    1.6333    0.0000 C   0  0  0  0  0  0  0  0  0  0  0  0
   -1.0458    1.9333    0.0000 C   0  0  0  0  0  0  0  0  0  0  0  0
  2  1  1  0  0  0  0
  3  2  1  0  0  0  0
  3  6  1  0  0  0  0
  4  1  1  0  0  0  0
  5 11  2  0  0  0  0
  6  8  1  0  0  0  0
  7  5  1  0  0  0  0
  8  4  1  0  0  0  0
  9  1  1  0  0  0  0
 10 13  1  0  0  0  0
 11  9  1  0  0  0  0
 12  5  1  0  0  0  0
 13 23  1  0  0  0  0
 13 12  2  0  0  0  0
 14  3  2  0  0  0  0
 15  2  2  0  0  0  0
 16  7  1  0  0  0  0
 17 10  1  0  0  0  0
 18  4  2  0  0  0  0
 19  7  2  0  0  0  0
 20 10  2  0  0  0  0
 21  6  2  0  0  0  0
 21 29  1  0  0  0  0
 22 11  1  0  0  0  0
 23 22  2  0  0  0  0
 24 14  1  0  0  0  0
 24 25  2  0  0  0  0
 25 21  1  0  0  0  0
 26  8  2  0  0  0  0
 27 14  1  0  0  0  0
 28 26  1  0  0  0  0
 29 28  2  0  0  0  0
M  CHG  4   7   1  10   1  16  -1  17  -1
M  END
>  <ID>
5532752

>  <Supplier>
ChemBridge

>  <clogP>
5.380000000000000e+000

>  <RB>
2

>  <tPSA>
1.328900000000000e+002

>  <Hacc>
7

>  <Hdon>
0

>  <LogSw>
-8.976000000000004e+000

>  <Group>
1

>  <Core>
280

$$$$
5532755
 OpenBabel03312015312D

 23 24  0  0  0  0  0  0  0  0999 V2000
   -0.6333    0.8208    0.0000 C   0  0  0  0  0  0  0  0  0  0  0  0
   -3.4333   -0.7875    0.0000 C   0  0  0  0  0  0  0  0  0  0  0  0
   -2.4958   -0.7875    0.0000 C   0  0  0  0  0  0  0  0  0  0  0  0
   -1.0958    0.0208    0.0000 N   0  0  0  0  0  0  0  0  0  0  0  0
    0.7667    0.0208    0.0000 N   0  0  0  0  0  0  0  0  0  0  0  0
   -2.0208    0.0208    0.0000 C   0  0  0  0  0  0  0  0  0  0  0  0
   -3.9000    0.0208    0.0000 C   0  0  0  0  0  0  0  0  0  0  0  0
    3.0875    2.4208    0.0000 C   0  0  0  0  0  0  0  0  0  0  0  0
    3.5542    3.2208    0.0000 N   0  0  0  0  0  0  0  0  0  0  0  0
   -1.1000    1.6208    0.0000 O   0  0  0  0  0  0  0  0  0  0  0  0
    0.3000    0.8208    0.0000 O   0  0  0  0  0  0  0  0  0  0  0  0
   -3.4333    0.8333    0.0000 C   0  0  0  0  0  0  0  0  0  0  0  0
    3.5500    1.6208    0.0000 C   0  0  0  0  0  0  0  0  0  0  0  0
    2.1542    2.4208    0.0000 C   0  0  0  0  0  0  0  0  0  0  0  0
    1.6875    0.0208    0.0000 C   0  0  0  0  0  0  0  0  0  0  0  0
   -3.8958   -1.5875    0.0000 Cl  0  0  0  0  0  0  0  0  0  0  0  0
    2.1500    0.8125    0.0000 C   0  0  0  0  0  0  0  0  0  0  0  0
   -2.4958    0.8333    0.0000 C   0  0  0  0  0  0  0  0  0  0  0  0
   -4.8208    0.0208    0.0000 Cl  0  0  0  0  0  0  0  0  0  0  0  0
    3.0792    0.8125    0.0000 C   0  0  0  0  0  0  0  0  0  0  0  0
    1.7000    1.6208    0.0000 C   0  0  0  0  0  0  0  0  0  0  0  0
    3.1000    4.0042    0.0000 C   0  0  0  0  0  0  0  0  0  0  0  0
    4.4875    3.2208    0.0000 C   0  0  0  0  0  0  0  0  0  0  0  0
  2  3  2  0  0  0  0
  2  7  1  0  0  0  0
  3  6  1  0  0  0  0
  4  1  1  0  0  0  0
  5 11  1  0  0  0  0
  6  4  1  0  0  0  0
  7 12  2  0  0  0  0
  8 14  1  0  0  0  0
  9  8  1  0  0  0  0
 10  1  2  0  0  0  0
 11  1  1  0  0  0  0
 12 18  1  0  0  0  0
 13 20  1  0  0  0  0
 13  8  2  0  0  0  0
 14 21  2  0  0  0  0
 15  5  2  0  0  0  0
 16  2  1  0  0  0  0
 17 15  1  0  0  0  0
 18  6  2  0  0  0  0
 19  7  1  0  0  0  0
 20 17  2  0  0  0  0
 21 17  1  0  0  0  0
 22  9  1  0  0  0  0
 23  9  1  0  0  0  0
M  END
>  <ID>
5532755

>  <Supplier>
ChemBridge

>  <clogP>
5.570000000000000e+000

>  <RB>
4

>  <tPSA>
5.393000000000000e+001

>  <Hacc>
3

>  <Hdon>
1

>  <LogSw>
-6.525000000000000e+000

>  <Group>
1

$$$$
7118488
 OpenBabel03312015312D

 24 26  0  0  0  0  0  0  0  0999 V2000
    4.9917    1.9083    0.0000 N   0  0  0  0  0  0  0  0  0  0  0  0
    6.2917    1.1583    0.0000 N   0  0  0  0  0  0  0  0  0  0  0  0
    4.3417    2.2833    0.0000 C   0  0  0  0  0  0  0  0  0  0  0  0
    6.9417    0.7833    0.0000 C   0  0  0  0  0  0  0  0  0  0  0  0
    3.6917    1.9083    0.0000 C   0  0  0  0  0  0  0  0  0  0  0  0
    5.6417    2.2833    0.0000 C   0  0  0  0  0  0  0  0  0  0  0  0
    4.9917    1.1583    0.0000 C   0  0  0  0  0  0  0  0  0  0  0  0
    5.6417    0.7833    0.0000 C   0  0  0  0  0  0  0  0  0  0  0  0
    6.2917    1.9083    0.0000 C   0  0  0  0  0  0  0  0  0  0  0  0
    3.0417    2.2833    0.0000 C   0  0  0  0  0  0  0  0  0  0  0  0
    7.5917    1.1583    0.0000 C   0  0  0  0  0  0  0  0  0  0  0  0
    2.3917    1.9083    0.0000 C   0  0  0  0  0  0  0  0  0  0  0  0
    8.8875    1.9083    0.0000 C   0  0  0  0  0  0  0  0  0  0  0  0
    1.7417    2.2833    0.0000 F   0  0  0  0  0  0  0  0  0  0  0  0
    7.5917    1.9083    0.0000 C   0  0  0  0  0  0  0  0  0  0  0  0
    8.2375    0.7833    0.0000 C   0  0  0  0  0  0  0  0  0  0  0  0
    8.8875    1.1583    0.0000 C   0  0  0  0  0  0  0  0  0  0  0  0
    8.2375    2.2833    0.0000 C   0  0  0  0  0  0  0  0  0  0  0  0
    9.5375    2.2833    0.0000 O   0  0  0  0  0  0  0  0  0  0  0  0
    3.0417    0.7833    0.0000 C   0  0  0  0  0  0  0  0  0  0  0  0
    3.6917    1.1583    0.0000 C   0  0  0  0  0  0  0  0  0  0  0  0
    2.3917    1.1583    0.0000 C   0  0  0  0  0  0  0  0  0  0  0  0
    9.5375    3.0333    0.0000 C   0  0  0  0  0  0  0  0  0  0  0  0
   10.1875    3.4083    0.0000 C   0  0  0  0  0  0  0  0  0  0  0  0
  2  8  1  0  0  0  0
  2  9  1  0  0  0  0
  3  1  1  0  0  0  0
  4  2  1  0  0  0  0
  5  3  1  0  0  0  0
  6  1  1  0  0  0  0
  7  1  1  0  0  0  0
  8  7  1  0  0  0  0
  9  6  1  0  0  0  0
 10  5  1  0  0  0  0
 11  4  1  0  0  0  0
 12 10  2  0  0  0  0
 12 22  1  0  0  0  0
 13 17  1  0  0  0  0
 13 18  2  0  0  0  0
 14 12  1  0  0  0  0
 15 11  2  0  0  0  0
 16 11  1  0  0  0  0
 17 16  2  0  0  0  0
 18 15  1  0  0  0  0
 19 13  1  0  0  0  0
 20 21  1  0  0  0  0
 21  5  2  0  0  0  0
 22 20  2  0  0  0  0
 23 19  1  0  0  0  0
 24 23  1  0  0  0  0
M  END
>  <ID>
7118488

>  <Supplier>
ChemBridge

>  <clogP>
1.140000000000000e+000

>  <RB>
1

>  <tPSA>
9.030999999999999e+001

>  <Hacc>
7

>  <Hdon>
2

>  <LogSw>
-1.561000000000000e+000

>  <Group>
2

>  <Core>
164

$$$$
7118489
 OpenBabel03312015312D

 25 27  0  0  0  0  0  0  0  0999 V2000
    2.6417    7.0875    0.0000 N   0  0  0  0  0  0  0  0  0  0  0  0
    4.3542    9.8917    0.0000 C   0  0  0  0  0  0  0  0  0  0  0  0
    4.3542    8.0042    0.0000 C   0  0  0  0  0  0  0  0  0  0  0  0
    1.1667    8.0042    0.0000 C   0  0  0  0  0  0  0  0  0  0  0  0
    1.1667    9.8917    0.0000 N   0  0  0  0  0  0  0  0  0  0  0  0
    2.6417   10.8167    0.0000 C   0  0  0  0  0  0  0  0  0  0  0  0
    5.3667   10.6042    0.0000 C   0  0  0  0  0  0  0  0  0  0  0  0
    6.7500   10.4792    0.0000 C   0  0  0  0  0  0  0  0  0  0  0  0
    7.5042   11.4417    0.0000 S   0  0  0  0  0  0  0  0  0  0  0  0
    2.6417    5.8292    0.0000 C   0  0  0  0  0  0  0  0  0  0  0  0
    8.6792   10.9417    0.0000 C   0  0  0  0  0  0  0  0  0  0  0  0
    7.3375    9.4792    0.0000 C   0  0  0  0  0  0  0  0  0  0  0  0
    8.5542    9.7292    0.0000 C   0  0  0  0  0  0  0  0  0  0  0  0
    0.0000    7.3792    0.0000 O   0  0  0  0  0  0  0  0  0  0  0  0
    5.3667    7.3792    0.0000 O   0  0  0  0  0  0  0  0  0  0  0  0
    2.6417   12.1167    0.0000 O   0  0  0  0  0  0  0  0  0  0  0  0
    3.8167    5.1167    0.0000 C   0  0  0  0  0  0  0  0  0  0  0  0
    3.8167    1.2208    0.0000 C   0  0  0  0  0  0  0  0  0  0  0  0
    3.8167    3.8625    0.0000 C   0  0  0  0  0  0  0  0  0  0  0  0
    3.8167    0.0000    0.0000 F   0  0  0  0  0  0  0  0  0  0  0  0
    4.8167    1.8958    0.0000 C   0  0  0  0  0  0  0  0  0  0  0  0
    2.6417    1.8958    0.0000 C   0  0  0  0  0  0  0  0  0  0  0  0
    4.8167    3.1958    0.0000 C   0  0  0  0  0  0  0  0  0  0  0  0
    2.6417    3.1958    0.0000 C   0  0  0  0  0  0  0  0  0  0  0  0
    9.7292   11.6167    0.0000 C   0  0  0  0  0  0  0  0  0  0  0  0
  2  3  1  0  0  0  0
  2  6  1  0  0  0  0
  3  1  1  0  0  0  0
  4  1  1  0  0  0  0
  5  4  1  0  0  0  0
  6  5  1  0  0  0  0
  7  2  2  0  0  0  0
  8  7  1  0  0  0  0
  9  8  1  0  0  0  0
 10  1  1  0  0  0  0
 11  9  1  0  0  0  0
 12  8  2  0  0  0  0
 13 12  1  0  0  0  0
 13 11  2  0  0  0  0
 14  4  2  0  0  0  0
 15  3  2  0  0  0  0
 16  6  2  0  0  0  0
 17 10  1  0  0  0  0
 18 22  2  0  0  0  0
 19 17  1  0  0  0  0
 20 18  1  0  0  0  0
 21 23  2  0  0  0  0
 21 18  1  0  0  0  0
 22 24  1  0  0  0  0
 23 19  1  0  0  0  0
 24 19  2  0  0  0  0
 25 11  1  0  0  0  0
M  END
>  <ID>
7118489

>  <Supplier>
ChemBridge

>  <clogP>
3.510000000000000e+000

>  <RB>
4

>  <tPSA>
6.647999999999998e+001

>  <Hacc>
3

>  <Hdon>
1

>  <LogSw>
-4.811000000000000e+000

>  <Group>
1

>  <Core>
006

$$$$
7118486
 OpenBabel03312015312D

 23 24  0  0  0  0  0  0  0  0999 V2000
   -6.1542    7.1792    0.0000 C   0  0  0  0  0  0  0  0  0  0  0  0
   -2.9625    7.1792    0.0000 C   0  0  0  0  0  0  0  0  0  0  0  0
   -7.7167    9.8667    0.0000 C   0  0  0  0  0  0  0  0  0  0  0  0
   -7.7167    4.3667    0.0000 C   0  0  0  0  0  0  0  0  0  0  0  0
   -1.4000    9.8667    0.0000 O   0  0  0  0  0  0  0  0  0  0  0  0
   -1.4000    4.3667    0.0000 N   0  0  0  0  0  0  0  0  0  0  0  0
  -10.8375    9.8667    0.0000 C   0  0  0  0  0  0  0  0  0  0  0  0
  -10.8375    4.3667    0.0000 C   0  0  0  0  0  0  0  0  0  0  0  0
   -6.0792   12.6792    0.0000 Cl  0  0  0  0  0  0  0  0  0  0  0  0
  -12.4792    1.5625    0.0000 S   0  0  0  0  0  0  0  0  0  0  0  0
    8.1042   -1.0042    0.0000 C   0  0  0  0  0  0  0  0  0  0  0  0
  -12.4042    7.1792    0.0000 C   0  0  0  0  0  0  0  0  0  0  0  0
   11.2292   -6.5042    0.0000 C   0  0  0  0  0  0  0  0  0  0  0  0
   11.2292   -1.0042    0.0000 C   0  0  0  0  0  0  0  0  0  0  0  0
    6.5500   -3.8167    0.0000 C   0  0  0  0  0  0  0  0  0  0  0  0
    8.1042   -6.5042    0.0000 C   0  0  0  0  0  0  0  0  0  0  0  0
   12.8000   -3.8167    0.0000 C   0  0  0  0  0  0  0  0  0  0  0  0
    6.4667    1.6708    0.0000 O   0  0  0  0  0  0  0  0  0  0  0  0
    1.7875    4.3667    0.0000 C   0  0  0  0  0  0  0  0  0  0  0  0
  -10.8375   -1.1292    0.0000 C   0  0  0  0  0  0  0  0  0  0  0  0
   12.8667   -9.3167    0.0000 C   0  0  0  0  0  0  0  0  0  0  0  0
    3.3500    1.6708    0.0000 C   0  0  0  0  0  0  0  0  0  0  0  0
   16.0000   -9.4000    0.0000 C   0  0  0  0  0  0  0  0  0  0  0  0
  2  1  1  0  0  0  0
  3  1  2  0  0  0  0
  4  1  1  0  0  0  0
  5  2  2  0  0  0  0
  6  2  1  0  0  0  0
  7  3  1  0  0  0  0
  8  4  2  0  0  0  0
  9  3  1  0  0  0  0
 10  8  1  0  0  0  0
 11 18  1  0  0  0  0
 12  8  1  0  0  0  0
 12  7  2  0  0  0  0
 13 16  1  0  0  0  0
 13 17  2  0  0  0  0
 14 11  2  0  0  0  0
 15 11  1  0  0  0  0
 16 15  2  0  0  0  0
 17 14  1  0  0  0  0
 18 22  1  0  0  0  0
 19  6  1  0  0  0  0
 20 10  1  0  0  0  0
 21 13  1  0  0  0  0
 22 19  1  0  0  0  0
 23 21  1  0  0  0  0
M  END
>  <ID>
7118486

>  <Supplier>
ChemBridge

>  <clogP>
4.590000000000000e+000

>  <RB>
5

>  <tPSA>
3.833000000000000e+001

>  <Hacc>
2

>  <Hdon>
1

>  <LogSw>
-5.671000000000000e+000

>  <Group>
2

>  <Core>
523

$$$$
7410251
 OpenBabel03312015312D

 27 28  0  0  0  0  0  0  0  0999 V2000
   -2.3833   -0.4042    0.0000 N   0  3  0  0  0  0  0  0  0  0  0  0
   -1.7333   -0.7792    0.0000 C   0  0  0  0  0  0  0  0  0  0  0  0
    2.8167   -0.4042    0.0000 C   0  0  0  0  0  0  0  0  0  0  0  0
    4.7625   -0.7792    0.0000 C   0  0  0  0  0  0  0  0  0  0  0  0
    2.1667   -0.7792    0.0000 N   0  0  0  0  0  0  0  0  0  0  0  0
    4.1167   -0.4042    0.0000 C   0  0  0  0  0  0  0  0  0  0  0  0
    4.7625   -1.5292    0.0000 C   0  0  0  0  0  0  0  0  0  0  0  0
    3.4667   -0.7792    0.0000 N   0  0  0  0  0  0  0  0  0  0  0  0
    1.5167   -0.4042    0.0000 C   0  0  0  0  0  0  0  0  0  0  0  0
   -1.7333   -1.5292    0.0000 C   0  0  0  0  0  0  0  0  0  0  0  0
    0.8667   -0.7792    0.0000 C   0  0  0  0  0  0  0  0  0  0  0  0
   -2.3833    0.3458    0.0000 O   0  5  0  0  0  0  0  0  0  0  0  0
    2.8167    0.3458    0.0000 S   0  0  0  0  0  0  0  0  0  0  0  0
   -1.0833   -0.4042    0.0000 C   0  0  0  0  0  0  0  0  0  0  0  0
   -3.0333   -0.7792    0.0000 O   0  0  0  0  0  0  0  0  0  0  0  0
    0.2167   -0.4042    0.0000 C   0  0  0  0  0  0  0  0  0  0  0  0
    5.4125   -1.9042    0.0000 O   0  0  0  0  0  0  0  0  0  0  0  0
    1.5167    0.3458    0.0000 O   0  0  0  0  0  0  0  0  0  0  0  0
   -0.4333   -0.7792    0.0000 C   0  0  0  0  0  0  0  0  0  0  0  0
   -1.0833   -1.9042    0.0000 C   0  0  0  0  0  0  0  0  0  0  0  0
    4.1125   -1.9042    0.0000 N   0  0  0  0  0  0  0  0  0  0  0  0
   -2.3833   -1.9042    0.0000 Cl  0  0  0  0  0  0  0  0  0  0  0  0
   -0.4333   -1.5292    0.0000 C   0  0  0  0  0  0  0  0  0  0  0  0
    5.4167   -0.4042    0.0000 C   0  0  0  0  0  0  0  0  0  0  0  0
    4.1167    0.3458    0.0000 C   0  0  0  0  0  0  0  0  0  0  0  0
    5.4167    0.3458    0.0000 C   0  0  0  0  0  0  0  0  0  0  0  0
    4.7625    0.7250    0.0000 C   0  0  0  0  0  0  0  0  0  0  0  0
  2  1  1  0  0  0  0
  3  5  1  0  0  0  0
  4  6  2  0  0  0  0
  5  9  1  0  0  0  0
  6  8  1  0  0  0  0
  7  4  1  0  0  0  0
  8  3  1  0  0  0  0
  9 11  1  0  0  0  0
 10  2  1  0  0  0  0
 11 16  2  0  0  0  0
 12  1  1  0  0  0  0
 13  3  2  0  0  0  0
 14  2  2  0  0  0  0
 15  1  2  0  0  0  0
 16 19  1  0  0  0  0
 17  7  2  0  0  0  0
 18  9  2  0  0  0  0
 19 14  1  0  0  0  0
 20 10  2  0  0  0  0
 20 23  1  0  0  0  0
 21  7  1  0  0  0  0
 22 10  1  0  0  0  0
 23 19  2  0  0  0  0
 24  4  1  0  0  0  0
 24 26  2  0  0  0  0
 25  6  1  0  0  0  0
 26 27  1  0  0  0  0
 27 25  2  0  0  0  0
M  CHG  2   1   1  12  -1
M  END
>  <ID>
7410251

>  <Supplier>
ChemBridge

>  <clogP>
3.092000000000000e+000

>  <RB>
4

>  <tPSA>
1.273600000000000e+002

>  <Hacc>
4

>  <Hdon>
3

>  <LogSw>
-4.271000000000002e+000

>  <Group>
1

>  <Core>
435

$$$$
5153688
 OpenBabel03312015312D

 20 21  0  0  0  0  0  0  0  0999 V2000
   -2.6708   -2.4875    0.0000 C   0  0  0  0  0  0  0  0  0  0  0  0
   -0.4458   -1.8792    0.0000 N   0  0  0  0  0  0  0  0  0  0  0  0
    1.7500   -1.2667    0.0000 C   0  0  0  0  0  0  0  0  0  0  0  0
   -1.3958   -2.8167    0.0000 N   0  0  0  0  0  0  0  0  0  0  0  0
   -3.6000   -3.4292    0.0000 O   0  0  0  0  0  0  0  0  0  0  0  0
    3.0500   -1.6167    0.0000 C   0  0  0  0  0  0  0  0  0  0  0  0
    0.8167   -2.2042    0.0000 C   0  0  0  0  0  0  0  0  0  0  0  0
   -2.9958   -1.2167    0.0000 C   0  0  0  0  0  0  0  0  0  0  0  0
   -2.0625   -0.2542    0.0000 O   0  0  0  0  0  0  0  0  0  0  0  0
    3.4042   -2.9042    0.0000 Cl  0  0  0  0  0  0  0  0  0  0  0  0
   -2.3833    1.0000    0.0000 C   0  0  0  0  0  0  0  0  0  0  0  0
    1.4042    0.0000    0.0000 C   0  0  0  0  0  0  0  0  0  0  0  0
    3.9792   -0.6792    0.0000 C   0  0  0  0  0  0  0  0  0  0  0  0
   -3.6625    1.3458    0.0000 C   0  0  0  0  0  0  0  0  0  0  0  0
   -1.4500    1.9583    0.0000 C   0  0  0  0  0  0  0  0  0  0  0  0
    2.3375    0.9458    0.0000 C   0  0  0  0  0  0  0  0  0  0  0  0
    3.6375    0.6000    0.0000 C   0  0  0  0  0  0  0  0  0  0  0  0
   -1.7708    3.2125    0.0000 C   0  0  0  0  0  0  0  0  0  0  0  0
   -4.0000    2.6208    0.0000 C   0  0  0  0  0  0  0  0  0  0  0  0
   -3.0708    3.5708    0.0000 C   0  0  0  0  0  0  0  0  0  0  0  0
  2  4  1  0  0  0  0
  3  7  1  0  0  0  0
  4  1  1  0  0  0  0
  5  1  2  0  0  0  0
  6  3  1  0  0  0  0
  7  2  2  0  0  0  0
  8  1  1  0  0  0  0
  9  8  1  0  0  0  0
 10  6  1  0  0  0  0
 11  9  1  0  0  0  0
 12  3  2  0  0  0  0
 13  6  2  0  0  0  0
 13 17  1  0  0  0  0
 14 11  2  0  0  0  0
 15 11  1  0  0  0  0
 16 12  1  0  0  0  0
 17 16  2  0  0  0  0
 18 15  2  0  0  0  0
 19 14  1  0  0  0  0
 20 18  1  0  0  0  0
 20 19  2  0  0  0  0
M  END
>  <ID>
5153688

>  <Supplier>
ChemBridge

>  <clogP>
3.390000000000000e+000

>  <RB>
5

>  <tPSA>
5.069000000000000e+001

>  <Hacc>
3

>  <Hdon>
1

>  <LogSw>
-4.201000000000001e+000

>  <Group>
2

>  <Core>
315

$$$$
7949022
 OpenBabel03312015312D

 23 25  0  0  0  0  0  0  0  0999 V2000
    4.0625    1.8000    0.0000 C   0  0  0  0  0  0  0  0  0  0  0  0
    4.4375    1.1500    0.0000 C   0  0  0  0  0  0  0  0  0  0  0  0
    4.4375    2.4583    0.0000 C   0  0  0  0  0  0  0  0  0  0  0  0
    6.6875    3.7458    0.0000 N   0  3  0  0  0  0  0  0  0  0  0  0
    5.1875    1.1500    0.0000 O   0  0  0  0  0  0  0  0  0  0  0  0
    3.3125    1.8000    0.0000 C   0  0  0  0  0  0  0  0  0  0  0  0
    5.1875    2.4583    0.0000 C   0  0  0  0  0  0  0  0  0  0  0  0
    5.5625    1.8000    0.0000 C   0  0  0  0  0  0  0  0  0  0  0  0
    6.3125    3.0958    0.0000 C   0  0  0  0  0  0  0  0  0  0  0  0
    5.5625    3.0958    0.0000 C   0  0  0  0  0  0  0  0  0  0  0  0
    2.9375    2.4583    0.0000 N   0  0  0  0  0  0  0  0  0  0  0  0
    2.1167    3.7833    0.0000 S   0  0  0  0  0  0  0  0  0  0  0  0
    1.8125    3.0958    0.0000 C   0  0  0  0  0  0  0  0  0  0  0  0
    7.4375    3.7458    0.0000 O   0  5  0  0  0  0  0  0  0  0  0  0
    6.3125    4.3917    0.0000 O   0  0  0  0  0  0  0  0  0  0  0  0
    4.0625    0.5000    0.0000 O   0  0  0  0  0  0  0  0  0  0  0  0
    1.5625    4.2792    0.0000 C   0  0  0  0  0  0  0  0  0  0  0  0
    2.9375    1.1500    0.0000 O   0  0  0  0  0  0  0  0  0  0  0  0
    1.0667    3.1750    0.0000 C   0  0  0  0  0  0  0  0  0  0  0  0
    6.3125    1.8000    0.0000 C   0  0  0  0  0  0  0  0  0  0  0  0
    6.6875    2.4583    0.0000 C   0  0  0  0  0  0  0  0  0  0  0  0
    0.9125    3.9083    0.0000 C   0  0  0  0  0  0  0  0  0  0  0  0
    2.1875    2.4583    0.0000 C   0  0  0  0  0  0  0  0  0  0  0  0
  2  1  1  0  0  0  0
  3  1  2  0  0  0  0
  4  9  1  0  0  0  0
  5  2  1  0  0  0  0
  5  8  1  0  0  0  0
  6  1  1  0  0  0  0
  7  3  1  0  0  0  0
  8  7  2  0  0  0  0
  9 10  2  0  0  0  0
 10  7  1  0  0  0  0
 11  6  1  0  0  0  0
 12 13  1  0  0  0  0
 13 23  1  0  0  0  0
 14  4  1  0  0  0  0
 15  4  2  0  0  0  0
 16  2  2  0  0  0  0
 17 12  1  0  0  0  0
 18  6  2  0  0  0  0
 19 13  2  0  0  0  0
 20  8  1  0  0  0  0
 20 21  2  0  0  0  0
 21  9  1  0  0  0  0
 22 19  1  0  0  0  0
 22 17  2  0  0  0  0
 23 11  1  0  0  0  0
M  CHG  2   4   1  14  -1
M  END
>  <ID>
7949022

>  <Supplier>
ChemBridge

>  <clogP>
2.323000000000000e+000

>  <RB>
3

>  <tPSA>
1.024500000000000e+002

>  <Hacc>
5

>  <Hdon>
1

>  <LogSw>
-3.983000000000000e+000

>  <Group>
2

>  <Core>
077

$$$$
6976412
 OpenBabel03312015312D

 25 27  0  0  0  0  0  0  0  0999 V2000
    7.3250    2.8375    0.0000 S   0  0  0  0  0  0  0  0  0  0  0  0
    6.1000    2.1458    0.0000 C   0  0  0  0  0  0  0  0  0  0  0  0
    8.5375    3.5000    0.0000 N   0  0  0  0  0  0  0  0  0  0  0  0
    4.8625    2.8500    0.0000 C   0  0  0  0  0  0  0  0  0  0  0  0
    3.6500    2.1625    0.0000 C   0  0  0  0  0  0  0  0  0  0  0  0
    6.6292    4.0417    0.0000 O   0  0  0  0  0  0  0  0  0  0  0  0
    8.0042    1.5875    0.0000 O   0  0  0  0  0  0  0  0  0  0  0  0
    6.1000    0.7333    0.0000 C   0  0  0  0  0  0  0  0  0  0  0  0
    9.7542    2.8083    0.0000 C   0  0  3  0  0  0  0  0  0  0  0  0
    3.6500    0.7333    0.0000 C   0  0  0  0  0  0  0  0  0  0  0  0
    4.8625    0.0375    0.0000 C   0  0  0  0  0  0  0  0  0  0  0  0
   10.9542    3.4833    0.0000 C   0  0  0  0  0  0  0  0  0  0  0  0
    2.4250    0.0208    0.0000 O   0  0  0  0  0  0  0  0  0  0  0  0
    4.8792    4.2292    0.0000 C   0  0  0  0  0  0  0  0  0  0  0  0
    2.4375    2.8500    0.0000 C   0  0  0  0  0  0  0  0  0  0  0  0
    9.7542    1.3958    0.0000 C   0  0  0  0  0  0  0  0  0  0  0  0
   10.9542    4.8667    0.0000 C   0  0  0  0  0  0  0  0  0  0  0  0
   12.1792    2.7958    0.0000 C   0  0  0  0  0  0  0  0  0  0  0  0
    1.2042    0.7208    0.0000 C   0  0  0  0  0  0  0  0  0  0  0  0
    3.6667    4.9292    0.0000 C   0  0  0  0  0  0  0  0  0  0  0  0
    2.4375    4.2292    0.0000 C   0  0  0  0  0  0  0  0  0  0  0  0
    0.0000    0.0000    0.0000 C   0  0  0  0  0  0  0  0  0  0  0  0
   12.1792    5.5792    0.0000 C   0  0  0  0  0  0  0  0  0  0  0  0
   13.3917    3.4708    0.0000 C   0  0  0  0  0  0  0  0  0  0  0  0
   13.3917    4.8667    0.0000 C   0  0  0  0  0  0  0  0  0  0  0  0
  2  1  1  0  0  0  0
  3  1  1  0  0  0  0
  4  2  1  0  0  0  0
  5  4  1  0  0  0  0
  5 10  1  0  0  0  0
  6  1  2  0  0  0  0
  7  1  2  0  0  0  0
  8  2  2  0  0  0  0
  9  3  1  0  0  0  0
 10 11  2  0  0  0  0
 11  8  1  0  0  0  0
 12  9  1  0  0  0  0
 13 10  1  0  0  0  0
 14  4  2  0  0  0  0
 15  5  2  0  0  0  0
 15 21  1  0  0  0  0
 16  9  1  0  0  0  0
 17 12  1  0  0  0  0
 18 12  2  0  0  0  0
 19 13  1  0  0  0  0
 20 14  1  0  0  0  0
 21 20  2  0  0  0  0
 22 19  1  0  0  0  0
 23 17  2  0  0  0  0
 23 25  1  0  0  0  0
 24 18  1  0  0  0  0
 25 24  2  0  0  0  0
M  END
>  <ID>
6976412

>  <Supplier>
ChemBridge

>  <clogP>
4.970000000000002e+000

>  <RB>
3

>  <tPSA>
5.540000000000000e+001

>  <Hacc>
4

>  <Hdon>
1

>  <LogSw>
-6.036000000000001e+000

>  <Group>
3

>  <Core>
519

$$$$
7949021
 OpenBabel03312015312D

 26 28  0  0  0  0  0  0  0  0999 V2000
    2.9250    1.8458    0.0000 N   0  0  0  0  0  0  0  0  0  0  0  0
    5.5250    1.0958    0.0000 C   0  0  0  0  0  0  0  0  0  0  0  0
    4.8750    0.7208    0.0000 N   0  0  0  0  0  0  0  0  0  0  0  0
    5.5250    1.8458    0.0000 O   0  0  0  0  0  0  0  0  0  0  0  0
    2.2750    2.2208    0.0000 C   0  0  0  0  0  0  0  0  0  0  0  0
    3.5750    0.7208    0.0000 C   0  0  0  0  0  0  0  0  0  0  0  0
    4.2250    1.8458    0.0000 C   0  0  0  0  0  0  0  0  0  0  0  0
    4.2250    1.0958    0.0000 C   0  0  0  0  0  0  0  0  0  0  0  0
    3.5750    2.2208    0.0000 C   0  0  0  0  0  0  0  0  0  0  0  0
    2.9250    1.0958    0.0000 C   0  0  0  0  0  0  0  0  0  0  0  0
    6.1750    0.7208    0.0000 C   0  0  0  0  0  0  0  0  0  0  0  0
    7.4667    0.7208    0.0000 C   0  0  0  0  0  0  0  0  0  0  0  0
    8.7667   -0.0292    0.0000 C   0  0  0  0  0  0  0  0  0  0  0  0
    6.8250    1.0958    0.0000 C   0  0  0  0  0  0  0  0  0  0  0  0
    1.6292    1.8458    0.0000 C   0  0  0  0  0  0  0  0  0  0  0  0
    8.1167    1.0958    0.0000 C   0  0  0  0  0  0  0  0  0  0  0  0
    7.4667   -0.0292    0.0000 C   0  0  0  0  0  0  0  0  0  0  0  0
    8.1167   -0.4042    0.0000 C   0  0  0  0  0  0  0  0  0  0  0  0
    8.7667    0.7208    0.0000 C   0  0  0  0  0  0  0  0  0  0  0  0
    9.4167   -0.4042    0.0000 O   0  0  0  0  0  0  0  0  0  0  0  0
    0.9792    2.2208    0.0000 C   0  0  0  0  0  0  0  0  0  0  0  0
    1.6292    1.0958    0.0000 C   0  0  0  0  0  0  0  0  0  0  0  0
   10.0667   -0.0292    0.0000 C   0  0  0  0  0  0  0  0  0  0  0  0
    0.3292    1.8458    0.0000 C   0  0  0  0  0  0  0  0  0  0  0  0
    0.9792    0.7208    0.0000 C   0  0  0  0  0  0  0  0  0  0  0  0
    0.3292    1.0958    0.0000 C   0  0  0  0  0  0  0  0  0  0  0  0
  2  3  1  0  0  0  0
  3  8  1  0  0  0  0
  4  2  2  0  0  0  0
  5  1  1  0  0  0  0
  6 10  1  0  0  0  0
  7  9  1  0  0  0  0
  7  8  1  0  0  0  0
  8  6  1  0  0  0  0
  9  1  1  0  0  0  0
 10  1  1  0  0  0  0
 11  2  1  0  0  0  0
 12 14  1  0  0  0  0
 13 18  2  0  0  0  0
 14 11  1  0  0  0  0
 15  5  1  0  0  0  0
 16 12  1  0  0  0  0
 17 12  2  0  0  0  0
 18 17  1  0  0  0  0
 19 16  2  0  0  0  0
 19 13  1  0  0  0  0
 20 13  1  0  0  0  0
 21 15  2  0  0  0  0
 22 15  1  0  0  0  0
 23 20  1  0  0  0  0
 24 21  1  0  0  0  0
 24 26  2  0  0  0  0
 25 22  2  0  0  0  0
 26 25  1  0  0  0  0
M  END
>  <ID>
7949021

>  <Supplier>
ChemBridge

>  <clogP>
2.784000000000000e+000

>  <RB>
6

>  <tPSA>
4.156999999999997e+001

>  <Hacc>
3

>  <Hdon>
1

>  <LogSw>
-4.148000000000000e+000

>  <Group>
3

$$$$
7124448
 OpenBabel03312015312D

 25 27  0  0  0  0  0  0  0  0999 V2000
    1.6292    0.4500    0.0000 C   0  0  0  0  0  0  0  0  0  0  0  0
    2.4292    0.0833    0.0000 S   0  0  0  0  0  0  0  0  0  0  0  0
    1.7167    1.3000    0.0000 N   0  0  0  0  0  0  0  0  0  0  0  0
    2.5792    1.4833    0.0000 N   0  0  0  0  0  0  0  0  0  0  0  0
    3.0042    0.7458    0.0000 C   0  0  0  0  0  0  0  0  0  0  0  0
    0.8667    0.0000    0.0000 N   0  0  0  0  0  0  0  0  0  0  0  0
    0.0000    0.0000    0.0000 C   0  0  0  0  0  0  0  0  0  0  0  0
   -0.2125    0.8500    0.0000 C   0  0  0  0  0  0  0  0  0  0  0  0
   -1.0333    1.1333    0.0000 C   0  0  3  0  0  0  0  0  0  0  0  0
   -0.5208   -0.7375    0.0000 O   0  0  0  0  0  0  0  0  0  0  0  0
    3.9042    0.7458    0.0000 C   0  0  0  0  0  0  0  0  0  0  0  0
   -1.6708    0.5458    0.0000 C   0  0  0  0  0  0  0  0  0  0  0  0
    4.3375    1.5000    0.0000 C   0  0  0  0  0  0  0  0  0  0  0  0
    5.2167    3.0208    0.0000 C   0  0  0  0  0  0  0  0  0  0  0  0
    5.6667    3.7833    0.0000 Cl  0  0  0  0  0  0  0  0  0  0  0  0
    5.6500    2.2458    0.0000 C   0  0  0  0  0  0  0  0  0  0  0  0
    4.3375    3.0208    0.0000 C   0  0  0  0  0  0  0  0  0  0  0  0
    5.2167    1.5000    0.0000 C   0  0  0  0  0  0  0  0  0  0  0  0
    3.9042    2.2458    0.0000 C   0  0  0  0  0  0  0  0  0  0  0  0
   -1.2125    1.9708    0.0000 C   0  0  0  0  0  0  0  0  0  0  0  0
   -2.4833    0.8208    0.0000 C   0  0  0  0  0  0  0  0  0  0  0  0
   -1.4708   -0.2875    0.0000 C   0  0  0  0  0  0  0  0  0  0  0  0
   -3.1458    0.2208    0.0000 C   0  0  0  0  0  0  0  0  0  0  0  0
   -2.1125   -0.9000    0.0000 C   0  0  0  0  0  0  0  0  0  0  0  0
   -2.9708   -0.6292    0.0000 C   0  0  0  0  0  0  0  0  0  0  0  0
  2  1  1  0  0  0  0
  3  1  2  0  0  0  0
  4  3  1  0  0  0  0
  4  5  2  0  0  0  0
  5  2  1  0  0  0  0
  6  1  1  0  0  0  0
  7  6  1  0  0  0  0
  8  7  1  0  0  0  0
  9  8  1  0  0  0  0
 10  7  2  0  0  0  0
 11  5  1  0  0  0  0
 12  9  1  0  0  0  0
 13 11  1  0  0  0  0
 14 17  1  0  0  0  0
 14 16  2  0  0  0  0
 15 14  1  0  0  0  0
 16 18  1  0  0  0  0
 17 19  2  0  0  0  0
 18 13  2  0  0  0  0
 19 13  1  0  0  0  0
 20  9  1  0  0  0  0
 21 12  1  0  0  0  0
 22 12  2  0  0  0  0
 23 21  2  0  0  0  0
 23 25  1  0  0  0  0
 24 22  1  0  0  0  0
 25 24  2  0  0  0  0
M  END
>  <ID>
7124448

>  <Supplier>
ChemBridge

>  <clogP>
4.800000000000000e+000

>  <RB>
6

>  <tPSA>
5.488000000000000e+001

>  <Hacc>
3

>  <Hdon>
1

>  <LogSw>
-6.011000000000000e+000

>  <Group>
3

>  <Core>
246

$$$$
7124447
 OpenBabel03312015312D

 29 31  0  0  0  0  0  0  0  0999 V2000
   -1.5833   -1.8000    0.0000 S   0  0  0  0  0  0  0  0  0  0  0  0
   -1.5833   -0.9750    0.0000 N   0  0  0  0  0  0  0  0  0  0  0  0
    1.2750    0.6833    0.0000 C   0  0  0  0  0  0  0  0  0  0  0  0
    1.9875    0.2708    0.0000 N   0  0  0  0  0  0  0  0  0  0  0  0
    1.9875   -0.5625    0.0000 C   0  0  0  0  0  0  0  0  0  0  0  0
   -0.7583   -1.8000    0.0000 O   0  0  0  0  0  0  0  0  0  0  0  0
   -1.1708   -2.5125    0.0000 O   0  0  0  0  0  0  0  0  0  0  0  0
   -0.8708   -0.5542    0.0000 C   0  0  0  0  0  0  0  0  0  0  0  0
    0.5542    0.2708    0.0000 C   0  0  0  0  0  0  0  0  0  0  0  0
   -2.2958   -0.5625    0.0000 C   0  0  0  0  0  0  0  0  0  0  0  0
    1.2750    1.5083    0.0000 O   0  0  0  0  0  0  0  0  0  0  0  0
    2.7000   -0.9667    0.0000 C   0  0  0  0  0  0  0  0  0  0  0  0
   -0.8708    0.2625    0.0000 C   0  0  0  0  0  0  0  0  0  0  0  0
   -0.1583   -0.9667    0.0000 C   0  0  0  0  0  0  0  0  0  0  0  0
    0.5542   -0.5542    0.0000 C   0  0  0  0  0  0  0  0  0  0  0  0
   -0.1625    0.6833    0.0000 C   0  0  0  0  0  0  0  0  0  0  0  0
   -2.2958   -2.2042    0.0000 C   0  0  0  0  0  0  0  0  0  0  0  0
   -3.0125   -0.9750    0.0000 C   0  0  0  0  0  0  0  0  0  0  0  0
    3.4167   -0.5625    0.0000 Br  0  0  0  0  0  0  0  0  0  0  0  0
   -4.4458   -1.7917    0.0000 C   0  0  0  0  0  0  0  0  0  0  0  0
   -3.0125   -1.7917    0.0000 C   0  0  0  0  0  0  0  0  0  0  0  0
   -3.7250   -0.5542    0.0000 C   0  0  0  0  0  0  0  0  0  0  0  0
   -4.4375   -0.9667    0.0000 C   0  0  0  0  0  0  0  0  0  0  0  0
   -3.7250   -2.2042    0.0000 C   0  0  0  0  0  0  0  0  0  0  0  0
    1.2667   -0.9667    0.0000 C   0  0  0  0  0  0  0  0  0  0  0  0
    2.6917   -1.7917    0.0000 C   0  0  0  0  0  0  0  0  0  0  0  0
   -5.1583   -2.2042    0.0000 C   0  0  0  0  0  0  0  0  0  0  0  0
    1.2667   -1.7917    0.0000 C   0  0  0  0  0  0  0  0  0  0  0  0
    1.9750   -2.2042    0.0000 C   0  0  0  0  0  0  0  0  0  0  0  0
  2  1  1  0  0  0  0
  3  9  1  0  0  0  0
  4  3  1  0  0  0  0
  5  4  1  0  0  0  0
  6  1  2  0  0  0  0
  7  1  2  0  0  0  0
  8  2  1  0  0  0  0
  9 15  2  0  0  0  0
 10  2  1  0  0  0  0
 11  3  2  0  0  0  0
 12  5  1  0  0  0  0
 13  8  1  0  0  0  0
 14  8  2  0  0  0  0
 15 14  1  0  0  0  0
 16 13  2  0  0  0  0
 16  9  1  0  0  0  0
 17  1  1  0  0  0  0
 18 10  1  0  0  0  0
 19 12  1  0  0  0  0
 20 23  2  0  0  0  0
 21 18  1  0  0  0  0
 22 18  2  0  0  0  0
 23 22  1  0  0  0  0
 24 21  2  0  0  0  0
 24 20  1  0  0  0  0
 25  5  2  0  0  0  0
 26 12  2  0  0  0  0
 27 20  1  0  0  0  0
 28 25  1  0  0  0  0
 29 28  2  0  0  0  0
 29 26  1  0  0  0  0
M  END
>  <ID>
7124447

>  <Supplier>
ChemBridge

>  <clogP>
4.220000000000000e+000

>  <RB>
5

>  <tPSA>
6.647999999999998e+001

>  <Hacc>
3

>  <Hdon>
1

>  <LogSw>
-6.254000000000000e+000

>  <Group>
2

>  <Core>
154

$$$$
6007774
 OpenBabel03312015312D

 29 31  0  0  0  0  0  0  0  0999 V2000
    0.3125   -3.7042    0.0000 C   0  0  0  0  0  0  0  0  0  0  0  0
    0.9625   -4.0792    0.0000 C   0  0  0  0  0  0  0  0  0  0  0  0
    4.8542   -0.2042    0.0000 C   0  0  0  0  0  0  0  0  0  0  0  0
    4.7792    0.5458    0.0000 C   0  0  0  0  0  0  0  0  0  0  0  0
    0.3125   -2.9542    0.0000 N   0  0  0  0  0  0  0  0  0  0  0  0
    2.9125   -0.7125    0.0000 C   0  0  0  0  0  0  0  0  0  0  0  0
    1.0417   -4.8292    0.0000 O   0  0  0  0  0  0  0  0  0  0  0  0
    5.3875    0.9833    0.0000 C   0  0  0  0  0  0  0  0  0  0  0  0
    4.2500   -0.6417    0.0000 O   0  0  0  0  0  0  0  0  0  0  0  0
    2.9125   -1.4625    0.0000 N   0  0  0  0  0  0  0  0  0  0  0  0
    1.6417   -3.7792    0.0000 C   0  0  0  0  0  0  0  0  0  0  0  0
   -0.3375   -4.0792    0.0000 O   0  0  0  0  0  0  0  0  0  0  0  0
    5.5417   -0.5042    0.0000 C   0  0  0  0  0  0  0  0  0  0  0  0
    1.7750   -4.9875    0.0000 C   0  0  0  0  0  0  0  0  0  0  0  0
    2.1500   -4.3375    0.0000 C   0  0  0  0  0  0  0  0  0  0  0  0
    2.2667   -0.3375    0.0000 O   0  0  0  0  0  0  0  0  0  0  0  0
    0.9625   -2.5792    0.0000 C   0  0  0  0  0  0  0  0  0  0  0  0
    3.5625   -0.3375    0.0000 C   0  0  0  0  0  0  0  0  0  0  0  0
    2.2542   -1.8375    0.0000 C   0  0  0  0  0  0  0  0  0  0  0  0
    4.0917    0.8500    0.0000 C   0  0  0  0  0  0  0  0  0  0  0  0
    6.0667    0.6833    0.0000 C   0  0  0  0  0  0  0  0  0  0  0  0
    6.1500   -0.0667    0.0000 C   0  0  0  0  0  0  0  0  0  0  0  0
    0.9667   -1.8292    0.0000 C   0  0  0  0  0  0  0  0  0  0  0  0
    1.6125   -2.9542    0.0000 C   0  0  0  0  0  0  0  0  0  0  0  0
    1.6125   -1.4542    0.0000 C   0  0  0  0  0  0  0  0  0  0  0  0
    2.2542   -2.5875    0.0000 C   0  0  0  0  0  0  0  0  0  0  0  0
    4.0167    1.5958    0.0000 C   0  0  0  0  0  0  0  0  0  0  0  0
    3.4875    0.4083    0.0000 C   0  0  0  0  0  0  0  0  0  0  0  0
    6.8292   -0.3750    0.0000 C   0  0  0  0  0  0  0  0  0  0  0  0
  2  1  1  0  0  0  0
  3  9  1  0  0  0  0
  4  3  2  0  0  0  0
  5  1  1  0  0  0  0
  6 10  1  0  0  0  0
  7  2  1  0  0  0  0
  8  4  1  0  0  0  0
  9 18  1  0  0  0  0
 10 19  1  0  0  0  0
 11  2  2  0  0  0  0
 12  1  2  0  0  0  0
 13  3  1  0  0  0  0
 14  7  1  0  0  0  0
 14 15  2  0  0  0  0
 15 11  1  0  0  0  0
 16  6  2  0  0  0  0
 17  5  1  0  0  0  0
 18  6  1  0  0  0  0
 19 26  2  0  0  0  0
 19 25  1  0  0  0  0
 20  4  1  0  0  0  0
 21 22  1  0  0  0  0
 21  8  2  0  0  0  0
 22 13  2  0  0  0  0
 23 17  1  0  0  0  0
 24 17  2  0  0  0  0
 25 23  2  0  0  0  0
 26 24  1  0  0  0  0
 27 20  1  0  0  0  0
 28 20  1  0  0  0  0
 29 22  1  0  0  0  0
M  END
>  <ID>
6007774

>  <Supplier>
ChemBridge

>  <clogP>
4.280000000000000e+000

>  <RB>
6

>  <tPSA>
8.057000000000002e+001

>  <Hacc>
4

>  <Hdon>
2

>  <LogSw>
-5.716000000000000e+000

>  <Group>
3

>  <Core>
560

$$$$
7457301
 OpenBabel03312015312D

 25 26  0  0  0  0  0  0  0  0999 V2000
    1.9292   -3.5917    0.0000 N   0  0  0  0  0  0  0  0  0  0  0  0
    2.1917   -4.2375    0.0000 C   0  0  0  0  0  0  0  0  0  0  0  0
    3.0542   -3.4917    0.0000 C   0  0  0  0  0  0  0  0  0  0  0  0
    2.4625   -3.1292    0.0000 C   0  0  0  0  0  0  0  0  0  0  0  0
    2.8917   -4.1792    0.0000 S   0  0  0  0  0  0  0  0  0  0  0  0
    3.6750   -3.1542    0.0000 C   0  0  0  0  0  0  0  0  0  0  0  0
    4.2875   -3.5167    0.0000 C   0  0  0  0  0  0  0  0  0  0  0  0
    5.5000   -4.2500    0.0000 C   0  0  0  0  0  0  0  0  0  0  0  0
    4.8792   -4.5917    0.0000 C   0  0  0  0  0  0  0  0  0  0  0  0
    4.2667   -4.2292    0.0000 C   0  0  0  0  0  0  0  0  0  0  0  0
    1.8125   -4.8292    0.0000 N   0  0  0  0  0  0  0  0  0  0  0  0
    5.5042   -3.5417    0.0000 C   0  0  0  0  0  0  0  0  0  0  0  0
    4.9042   -3.1792    0.0000 C   0  0  0  0  0  0  0  0  0  0  0  0
    6.1042   -4.6167    0.0000 O   0  0  0  0  0  0  0  0  0  0  0  0
    2.4000   -2.4167    0.0000 O   0  0  0  0  0  0  0  0  0  0  0  0
    1.2375   -3.4375    0.0000 C   0  0  0  0  0  0  0  0  0  0  0  0
    0.7542   -3.9542    0.0000 C   0  0  0  0  0  0  0  0  0  0  0  0
    0.0625   -3.8000    0.0000 C   0  0  0  0  0  0  0  0  0  0  0  0
    3.6542   -4.5667    0.0000 Br  0  0  0  0  0  0  0  0  0  0  0  0
    6.1042   -3.1917    0.0000 O   0  0  0  0  0  0  0  0  0  0  0  0
    6.1000   -5.3250    0.0000 C   0  0  0  0  0  0  0  0  0  0  0  0
    6.1125   -2.4917    0.0000 C   0  0  0  0  0  0  0  0  0  0  0  0
    5.4792   -5.6667    0.0000 C   0  0  0  0  0  0  0  0  0  0  0  0
    6.7000   -5.6875    0.0000 C   0  0  0  0  0  0  0  0  0  0  0  0
    6.7292   -2.1417    0.0000 C   0  0  0  0  0  0  0  0  0  0  0  0
  2  1  1  0  0  0  0
  3  4  1  0  0  0  0
  3  5  1  0  0  0  0
  4  1  1  0  0  0  0
  5  2  1  0  0  0  0
  6  3  2  0  0  0  0
  7  6  1  0  0  0  0
  8 12  2  0  0  0  0
  8  9  1  0  0  0  0
  9 10  2  0  0  0  0
 10  7  1  0  0  0  0
 11  2  2  0  0  0  0
 12 13  1  0  0  0  0
 13  7  2  0  0  0  0
 14  8  1  0  0  0  0
 15  4  2  0  0  0  0
 16  1  1  0  0  0  0
 17 16  1  0  0  0  0
 18 17  2  0  0  0  0
 19 10  1  0  0  0  0
 20 12  1  0  0  0  0
 21 14  1  0  0  0  0
 22 20  1  0  0  0  0
 23 21  1  0  0  0  0
 24 21  1  0  0  0  0
 25 22  1  0  0  0  0
M  END
>  <ID>
7457301

>  <Supplier>
ChemBridge

>  <clogP>
5.251000000000000e+000

>  <RB>
4

>  <tPSA>
6.262000000000000e+001

>  <Hacc>
4

>  <Hdon>
1

>  <LogSw>
-6.232000000000000e+000

>  <Group>
2

$$$$
5669084
 OpenBabel03312015312D

 20 21  0  0  0  0  0  0  0  0999 V2000
   -1.7125   -0.0292    0.0000 N   0  0  0  0  0  0  0  0  0  0  0  0
   -2.1125   -0.3167    0.0000 C   0  0  0  0  0  0  0  0  0  0  0  0
   -1.4625   -0.8000    0.0000 C   0  0  0  0  0  0  0  0  0  0  0  0
   -1.3125   -0.3167    0.0000 C   0  0  0  0  0  0  0  0  0  0  0  0
   -1.9708   -0.8000    0.0000 S   0  0  0  0  0  0  0  0  0  0  0  0
   -1.1708   -1.2000    0.0000 C   0  0  0  0  0  0  0  0  0  0  0  0
   -0.6833   -1.1500    0.0000 C   0  0  0  0  0  0  0  0  0  0  0  0
   -0.3833   -1.5292    0.0000 C   0  0  0  0  0  0  0  0  0  0  0  0
    0.1000   -1.4667    0.0000 C   0  0  0  0  0  0  0  0  0  0  0  0
   -2.5625   -0.1667    0.0000 S   0  0  0  0  0  0  0  0  0  0  0  0
    0.2792   -1.0167    0.0000 C   0  0  0  0  0  0  0  0  0  0  0  0
   -0.4958   -0.7000    0.0000 C   0  0  0  0  0  0  0  0  0  0  0  0
   -0.8458   -0.1500    0.0000 O   0  0  0  0  0  0  0  0  0  0  0  0
   -0.0125   -0.6500    0.0000 C   0  0  0  0  0  0  0  0  0  0  0  0
   -1.7125    0.4458    0.0000 C   0  0  0  0  0  0  0  0  0  0  0  0
   -0.5625   -1.9792    0.0000 O   0  0  0  0  0  0  0  0  0  0  0  0
    0.3792   -1.8542    0.0000 O   0  0  0  0  0  0  0  0  0  0  0  0
    0.1542   -0.2000    0.0000 Br  0  0  0  0  0  0  0  0  0  0  0  0
    0.2000   -2.3000    0.0000 C   0  0  0  0  0  0  0  0  0  0  0  0
   -2.1208    0.6833    0.0000 C   0  0  0  0  0  0  0  0  0  0  0  0
  2  1  1  0  0  0  0
  3  4  1  0  0  0  0
  3  5  1  0  0  0  0
  4  1  1  0  0  0  0
  5  2  1  0  0  0  0
  6  3  2  0  0  0  0
  7  6  1  0  0  0  0
  8  7  2  0  0  0  0
  9  8  1  0  0  0  0
  9 11  2  0  0  0  0
 10  2  2  0  0  0  0
 11 14  1  0  0  0  0
 12  7  1  0  0  0  0
 13  4  2  0  0  0  0
 14 12  2  0  0  0  0
 15  1  1  0  0  0  0
 16  8  1  0  0  0  0
 17  9  1  0  0  0  0
 18 14  1  0  0  0  0
 19 17  1  0  0  0  0
 20 15  1  0  0  0  0
M  END
>  <ID>
5669084

>  <Supplier>
ChemBridge

>  <clogP>
2.920000000000000e+000

>  <RB>
1

>  <tPSA>
4.977000000000000e+001

>  <Hacc>
3

>  <Hdon>
1

>  <LogSw>
-4.422000000000000e+000

>  <Group>
1

>  <Core>
001

$$$$
5226548
 OpenBabel03312015312D

 24 26  0  0  0  0  0  0  0  0999 V2000
    0.0875    0.3500    0.0000 C   0  0  0  0  0  0  0  0  0  0  0  0
    0.5292   -0.4042    0.0000 O   0  0  0  0  0  0  0  0  0  0  0  0
    0.5292    1.0958    0.0000 C   0  0  0  0  0  0  0  0  0  0  0  0
    3.9875   -0.3875    0.0000 C   0  0  0  0  0  0  0  0  0  0  0  0
    3.1292   -0.4042    0.0000 C   0  0  0  0  0  0  0  0  0  0  0  0
    1.3875    2.5958    0.0000 C   0  0  0  0  0  0  0  0  0  0  0  0
   -0.7708    0.3500    0.0000 O   0  0  0  0  0  0  0  0  0  0  0  0
    4.4292   -1.1500    0.0000 O   0  0  0  0  0  0  0  0  0  0  0  0
    0.0875    1.8500    0.0000 C   0  0  0  0  0  0  0  0  0  0  0  0
    1.3875    1.0958    0.0000 C   0  0  0  0  0  0  0  0  0  0  0  0
    0.5292    2.6125    0.0000 C   0  0  0  0  0  0  0  0  0  0  0  0
    1.8042    1.8333    0.0000 C   0  0  0  0  0  0  0  0  0  0  0  0
    1.8500    3.3333    0.0000 C   0  0  0  0  0  0  0  0  0  0  0  0
    2.6875    0.3500    0.0000 C   0  0  0  0  0  0  0  0  0  0  0  0
    2.6875   -1.1667    0.0000 C   0  0  0  0  0  0  0  0  0  0  0  0
    1.3875   -0.4042    0.0000 C   0  0  0  0  0  0  0  0  0  0  0  0
    1.8292    0.3500    0.0000 C   0  0  0  0  0  0  0  0  0  0  0  0
    1.8292   -1.1667    0.0000 C   0  0  0  0  0  0  0  0  0  0  0  0
    4.4292    0.3500    0.0000 C   0  0  0  0  0  0  0  0  0  0  0  0
    1.4292    4.0875    0.0000 C   0  0  0  0  0  0  0  0  0  0  0  0
    2.7042    3.3125    0.0000 C   0  0  0  0  0  0  0  0  0  0  0  0
    3.1500    4.0417    0.0000 C   0  0  0  0  0  0  0  0  0  0  0  0
    1.8875    4.8292    0.0000 C   0  0  0  0  0  0  0  0  0  0  0  0
    2.7667    4.7792    0.0000 C   0  0  0  0  0  0  0  0  0  0  0  0
  2  1  1  0  0  0  0
  3  1  1  0  0  0  0
  4  5  1  0  0  0  0
  5 15  1  0  0  0  0
  6 12  2  0  0  0  0
  7  1  2  0  0  0  0
  8  4  2  0  0  0  0
  9  3  1  0  0  0  0
 10  3  2  0  0  0  0
 11  9  2  0  0  0  0
 11  6  1  0  0  0  0
 12 10  1  0  0  0  0
 13  6  1  0  0  0  0
 14 17  1  0  0  0  0
 14  5  2  0  0  0  0
 15 18  2  0  0  0  0
 16  2  1  0  0  0  0
 17 16  2  0  0  0  0
 18 16  1  0  0  0  0
 19  4  1  0  0  0  0
 20 13  1  0  0  0  0
 21 13  2  0  0  0  0
 22 21  1  0  0  0  0
 23 20  2  0  0  0  0
 23 24  1  0  0  0  0
 24 22  2  0  0  0  0
M  END
>  <ID>
5226548

>  <Supplier>
ChemBridge

>  <clogP>
5.240000000000000e+000

>  <RB>
5

>  <tPSA>
4.337000000000000e+001

>  <Hacc>
3

>  <Hdon>
0

>  <LogSw>
-5.982000000000000e+000

>  <Group>
1

>  <Core>
266

$$$$
5669083
 OpenBabel03312015312D

 32 36  0  0  0  0  0  0  0  0999 V2000
    3.7667   -2.5542    0.0000 C   0  0  0  0  0  0  0  0  0  0  0  0
    3.7667   -3.1542    0.0000 C   0  0  0  0  0  0  0  0  0  0  0  0
    4.2792   -2.2542    0.0000 C   0  0  0  0  0  0  0  0  0  0  0  0
    4.2875   -3.4500    0.0000 N   0  0  0  0  0  0  0  0  0  0  0  0
    4.8000   -2.5500    0.0000 N   0  0  0  0  0  0  0  0  0  0  0  0
    3.2042   -3.3500    0.0000 S   0  0  0  0  0  0  0  0  0  0  0  0
    3.2000   -2.3792    0.0000 C   0  0  0  0  0  0  0  0  0  0  0  0
    8.1875   -1.3667    0.0000 N   0  3  0  0  0  0  0  0  0  0  0  0
    7.8292   -0.8875    0.0000 C   0  0  0  0  0  0  0  0  0  0  0  0
    7.0000   -1.5042    0.0000 C   0  0  0  0  0  0  0  0  0  0  0  0
    7.2375   -0.9542    0.0000 C   0  0  0  0  0  0  0  0  0  0  0  0
    2.8542   -2.8667    0.0000 C   0  0  0  0  0  0  0  0  0  0  0  0
    4.8042   -3.1500    0.0000 C   0  0  0  0  0  0  0  0  0  0  0  0
    6.4042   -1.6375    0.0000 O   0  0  0  0  0  0  0  0  0  0  0  0
    5.3042   -2.2500    0.0000 N   0  0  0  0  0  0  0  0  0  0  0  0
    7.3042   -2.0167    0.0000 C   0  0  0  0  0  0  0  0  0  0  0  0
    6.3542   -2.2375    0.0000 C   0  0  0  0  0  0  0  0  0  0  0  0
    5.8375   -2.5500    0.0000 C   0  0  0  0  0  0  0  0  0  0  0  0
    8.0667   -0.3375    0.0000 C   0  0  0  0  0  0  0  0  0  0  0  0
    6.8667   -0.4792    0.0000 C   0  0  0  0  0  0  0  0  0  0  0  0
    6.9042   -2.4667    0.0000 C   0  0  0  0  0  0  0  0  0  0  0  0
    7.9500   -1.9167    0.0000 O   0  5  0  0  0  0  0  0  0  0  0  0
    8.7875   -1.3042    0.0000 O   0  0  0  0  0  0  0  0  0  0  0  0
    4.2667   -1.6542    0.0000 O   0  0  0  0  0  0  0  0  0  0  0  0
    7.7042    0.1333    0.0000 C   0  0  0  0  0  0  0  0  0  0  0  0
    7.1042    0.0625    0.0000 C   0  0  0  0  0  0  0  0  0  0  0  0
    2.9542   -1.8375    0.0000 C   0  0  0  0  0  0  0  0  0  0  0  0
    2.2500   -2.8042    0.0000 C   0  0  0  0  0  0  0  0  0  0  0  0
    7.9500    0.6833    0.0000 O   0  0  0  0  0  0  0  0  0  0  0  0
    7.5875    1.1625    0.0000 C   0  0  0  0  0  0  0  0  0  0  0  0
    2.3542   -1.7792    0.0000 C   0  0  0  0  0  0  0  0  0  0  0  0
    2.0042   -2.2667    0.0000 C   0  0  0  0  0  0  0  0  0  0  0  0
  2  1  2  0  0  0  0
  3  1  1  0  0  0  0
  4  2  1  0  0  0  0
  4 13  2  0  0  0  0
  5  3  1  0  0  0  0
  6  2  1  0  0  0  0
  7  1  1  0  0  0  0
  8  9  1  0  0  0  0
  9 11  2  0  0  0  0
 10 14  1  0  0  0  0
 11 10  1  0  0  0  0
 12  7  2  0  0  0  0
 12  6  1  0  0  0  0
 13  5  1  0  0  0  0
 14 17  1  0  0  0  0
 15  5  1  0  0  0  0
 16 21  1  0  0  0  0
 16 10  2  0  0  0  0
 17 18  1  0  0  0  0
 18 15  2  0  0  0  0
 19  9  1  0  0  0  0
 19 25  2  0  0  0  0
 20 11  1  0  0  0  0
 21 17  2  0  0  0  0
 22  8  1  0  0  0  0
 23  8  2  0  0  0  0
 24  3  2  0  0  0  0
 25 26  1  0  0  0  0
 26 20  2  0  0  0  0
 27  7  1  0  0  0  0
 28 12  1  0  0  0  0
 28 32  1  0  0  0  0
 29 25  1  0  0  0  0
 30 29  1  0  0  0  0
 31 27  1  0  0  0  0
 32 31  1  0  0  0  0
M  CHG  2   8   1  22  -1
M  END
>  <ID>
5669083

>  <Supplier>
ChemBridge

>  <clogP>
5.440000000000000e+000

>  <RB>
3

>  <tPSA>
1.127600000000000e+002

>  <Hacc>
7

>  <Hdon>
0

>  <LogSw>
-7.519000000000000e+000

>  <Group>
1

>  <Core>
063

$$$$
6215066
 OpenBabel03312015312D

 21 22  0  0  0  0  0  0  0  0999 V2000
    8.3417   -2.2292    0.0000 C   0  0  0  0  0  0  0  0  0  0  0  0
    8.9917   -1.8542    0.0000 C   0  0  0  0  0  0  0  0  0  0  0  0
    5.6792   -2.2542    0.0000 C   0  0  0  0  0  0  0  0  0  0  0  0
    6.3917   -1.8417    0.0000 N   0  0  0  0  0  0  0  0  0  0  0  0
    5.0292   -1.8792    0.0000 C   0  0  0  0  0  0  0  0  0  0  0  0
    8.3375   -2.9792    0.0000 C   0  0  0  0  0  0  0  0  0  0  0  0
    7.6917   -1.8500    0.0000 C   0  0  0  0  0  0  0  0  0  0  0  0
    7.0375   -2.2167    0.0000 C   0  0  0  0  0  0  0  0  0  0  0  0
    5.6667   -3.0792    0.0000 O   0  0  0  0  0  0  0  0  0  0  0  0
    4.3792   -2.2500    0.0000 C   0  0  0  0  0  0  0  0  0  0  0  0
    9.5917   -1.5167    0.0000 F   0  0  0  0  0  0  0  0  0  0  0  0
    9.7167   -2.1375    0.0000 F   0  0  0  0  0  0  0  0  0  0  0  0
    9.1292   -1.0792    0.0000 F   0  0  0  0  0  0  0  0  0  0  0  0
    7.6792   -3.3500    0.0000 C   0  0  0  0  0  0  0  0  0  0  0  0
    3.7292   -1.8667    0.0000 C   0  0  0  0  0  0  0  0  0  0  0  0
    7.0375   -2.9667    0.0000 C   0  0  0  0  0  0  0  0  0  0  0  0
    8.9792   -3.3542    0.0000 Cl  0  0  0  0  0  0  0  0  0  0  0  0
    3.0750   -2.2417    0.0000 I   0  0  0  0  0  0  0  0  0  0  0  0
    5.0292   -1.1292    0.0000 C   0  0  0  0  0  0  0  0  0  0  0  0
    4.3875   -0.7500    0.0000 C   0  0  0  0  0  0  0  0  0  0  0  0
    3.7292   -1.1167    0.0000 C   0  0  0  0  0  0  0  0  0  0  0  0
  2  1  1  0  0  0  0
  3  4  1  0  0  0  0
  4  8  1  0  0  0  0
  5  3  1  0  0  0  0
  6  1  1  0  0  0  0
  7  1  2  0  0  0  0
  8  7  1  0  0  0  0
  9  3  2  0  0  0  0
 10  5  1  0  0  0  0
 11  2  1  0  0  0  0
 12  2  1  0  0  0  0
 13  2  1  0  0  0  0
 14  6  2  0  0  0  0
 14 16  1  0  0  0  0
 15 10  2  0  0  0  0
 16  8  2  0  0  0  0
 17  6  1  0  0  0  0
 18 15  1  0  0  0  0
 19  5  2  0  0  0  0
 20 19  1  0  0  0  0
 21 20  2  0  0  0  0
 21 15  1  0  0  0  0
M  END
>  <ID>
6215066

>  <Supplier>
ChemBridge

>  <clogP>
5.710000000000000e+000

>  <RB>
2

>  <tPSA>
2.910000000000000e+001

>  <Hacc>
1

>  <Hdon>
1

>  <LogSw>
-7.179000000000000e+000

>  <Group>
1

>  <Core>
511

$$$$
5226545
 OpenBabel03312015312D

 21 22  0  0  0  0  0  0  0  0999 V2000
   -0.5833   -2.0375    0.0000 C   0  0  0  0  0  0  0  0  0  0  0  0
   -1.3333   -1.2667    0.0000 C   0  0  0  0  0  0  0  0  0  0  0  0
   -2.7708    0.2208    0.0000 C   0  0  0  0  0  0  0  0  0  0  0  0
   -0.8625   -3.0375    0.0000 O   0  0  0  0  0  0  0  0  0  0  0  0
   -1.0208   -0.2375    0.0000 C   0  0  0  0  0  0  0  0  0  0  0  0
   -2.3333   -1.5167    0.0000 C   0  0  0  0  0  0  0  0  0  0  0  0
   -1.7708    0.5000    0.0000 C   0  0  0  0  0  0  0  0  0  0  0  0
   -3.0708   -0.7792    0.0000 C   0  0  0  0  0  0  0  0  0  0  0  0
    0.4375   -1.7792    0.0000 N   0  0  0  0  0  0  0  0  0  0  0  0
   -3.5125    0.9958    0.0000 C   0  0  0  0  0  0  0  0  0  0  0  0
    0.7167   -0.7542    0.0000 C   0  0  0  0  0  0  0  0  0  0  0  0
   -4.5208    0.7333    0.0000 C   0  0  0  0  0  0  0  0  0  0  0  0
   -3.2125    1.9958    0.0000 C   0  0  0  0  0  0  0  0  0  0  0  0
    1.7500   -0.5000    0.0000 C   0  0  0  0  0  0  0  0  0  0  0  0
    3.3500    1.7833    0.0000 C   0  0  0  0  0  0  0  0  0  0  0  0
    3.0500    0.7625    0.0000 C   0  0  0  0  0  0  0  0  0  0  0  0
    2.0292    0.5000    0.0000 C   0  0  0  0  0  0  0  0  0  0  0  0
    4.3542    2.0458    0.0000 C   0  0  0  0  0  0  0  0  0  0  0  0
   -5.2708    1.4833    0.0000 C   0  0  0  0  0  0  0  0  0  0  0  0
   -3.9625    2.7333    0.0000 C   0  0  0  0  0  0  0  0  0  0  0  0
   -4.9708    2.4833    0.0000 C   0  0  0  0  0  0  0  0  0  0  0  0
  2  1  1  0  0  0  0
  3  8  1  0  0  0  0
  3  7  2  0  0  0  0
  4  1  2  0  0  0  0
  5  2  2  0  0  0  0
  6  2  1  0  0  0  0
  7  5  1  0  0  0  0
  8  6  2  0  0  0  0
  9  1  1  0  0  0  0
 10  3  1  0  0  0  0
 11  9  1  0  0  0  0
 12 10  1  0  0  0  0
 13 10  2  0  0  0  0
 14 11  1  0  0  0  0
 15 16  1  0  0  0  0
 16 17  1  0  0  0  0
 17 14  1  0  0  0  0
 18 15  1  0  0  0  0
 19 12  2  0  0  0  0
 19 21  1  0  0  0  0
 20 13  1  0  0  0  0
 21 20  2  0  0  0  0
M  END
>  <ID>
5226545

>  <Supplier>
ChemBridge

>  <clogP>
5.390000000000000e+000

>  <RB>
5

>  <tPSA>
2.910000000000000e+001

>  <Hacc>
1

>  <Hdon>
1

>  <LogSw>
-5.856000000000000e+000

>  <Group>
1

$$$$
5226544
 OpenBabel03312015312D

 23 25  0  0  0  0  0  0  0  0999 V2000
   -1.8833   -2.5375    0.0000 C   0  0  0  0  0  0  0  0  0  0  0  0
   -1.4125   -1.7667    0.0000 N   0  0  0  0  0  0  0  0  0  0  0  0
   -2.7833   -2.5375    0.0000 C   0  0  0  0  0  0  0  0  0  0  0  0
   -1.8625    0.6000    0.0000 C   0  0  0  0  0  0  0  0  0  0  0  0
   -1.8708   -0.9667    0.0000 C   0  0  0  0  0  0  0  0  0  0  0  0
   -1.4000   -0.2000    0.0000 C   0  0  0  0  0  0  0  0  0  0  0  0
   -4.5958   -2.5042    0.0000 C   0  0  0  0  0  0  0  0  0  0  0  0
   -1.4208   -3.3500    0.0000 O   0  0  0  0  0  0  0  0  0  0  0  0
   -2.7625    0.6000    0.0000 C   0  0  0  0  0  0  0  0  0  0  0  0
   -3.2333   -1.7292    0.0000 C   0  0  0  0  0  0  0  0  0  0  0  0
   -3.2500   -3.3042    0.0000 C   0  0  0  0  0  0  0  0  0  0  0  0
   -4.1333   -1.7292    0.0000 C   0  0  0  0  0  0  0  0  0  0  0  0
   -4.1458   -3.3042    0.0000 C   0  0  0  0  0  0  0  0  0  0  0  0
   -5.4958   -2.5042    0.0000 C   0  0  0  0  0  0  0  0  0  0  0  0
   -3.2208   -0.1667    0.0000 C   0  0  0  0  0  0  0  0  0  0  0  0
   -2.7708   -0.9667    0.0000 C   0  0  0  0  0  0  0  0  0  0  0  0
   -1.3833    1.4000    0.0000 C   0  0  0  0  0  0  0  0  0  0  0  0
   -3.2125    1.4125    0.0000 C   0  0  0  0  0  0  0  0  0  0  0  0
   -5.9708   -3.2792    0.0000 C   0  0  0  0  0  0  0  0  0  0  0  0
   -5.9583   -1.7000    0.0000 C   0  0  0  0  0  0  0  0  0  0  0  0
   -6.8542   -3.2792    0.0000 C   0  0  0  0  0  0  0  0  0  0  0  0
   -6.8417   -1.7000    0.0000 C   0  0  0  0  0  0  0  0  0  0  0  0
   -7.3042   -2.4667    0.0000 C   0  0  0  0  0  0  0  0  0  0  0  0
  2  1  1  0  0  0  0
  3  1  1  0  0  0  0
  4  6  1  0  0  0  0
  4  9  2  0  0  0  0
  5  2  1  0  0  0  0
  6  5  2  0  0  0  0
  7 13  1  0  0  0  0
  7 12  2  0  0  0  0
  8  1  2  0  0  0  0
  9 15  1  0  0  0  0
 10  3  2  0  0  0  0
 11  3  1  0  0  0  0
 12 10  1  0  0  0  0
 13 11  2  0  0  0  0
 14  7  1  0  0  0  0
 15 16  2  0  0  0  0
 16  5  1  0  0  0  0
 17  4  1  0  0  0  0
 18  9  1  0  0  0  0
 19 14  1  0  0  0  0
 20 14  2  0  0  0  0
 21 19  2  0  0  0  0
 21 23  1  0  0  0  0
 22 20  1  0  0  0  0
 23 22  2  0  0  0  0
M  END
>  <ID>
5226544

>  <Supplier>
ChemBridge

>  <clogP>
5.480000000000000e+000

>  <RB>
3

>  <tPSA>
2.910000000000000e+001

>  <Hacc>
1

>  <Hdon>
1

>  <LogSw>
-6.078000000000000e+000

>  <Group>
2

>  <Core>
511

$$$$
5226546
 OpenBabel03312015312D

 21 23  0  0  0  0  0  0  0  0999 V2000
   -2.1333    1.0625    0.0000 C   0  0  0  0  0  0  0  0  0  0  0  0
   -3.0333    0.1458    0.0000 N   0  0  0  0  0  0  0  0  0  0  0  0
   -0.9000    0.7333    0.0000 C   0  0  0  0  0  0  0  0  0  0  0  0
   -2.4833    2.2500    0.0000 O   0  0  0  0  0  0  0  0  0  0  0  0
    1.5667    0.0833    0.0000 C   0  0  0  0  0  0  0  0  0  0  0  0
   -0.5625   -0.4875    0.0000 C   0  0  0  0  0  0  0  0  0  0  0  0
    0.0000    1.6333    0.0000 C   0  0  0  0  0  0  0  0  0  0  0  0
    0.6500   -0.8375    0.0000 C   0  0  0  0  0  0  0  0  0  0  0  0
    1.2292    1.3125    0.0000 C   0  0  0  0  0  0  0  0  0  0  0  0
    2.7792   -0.2375    0.0000 C   0  0  0  0  0  0  0  0  0  0  0  0
   -4.2458    0.4333    0.0000 C   0  0  0  0  0  0  0  0  0  0  0  0
   -2.4833   -1.0292    0.0000 C   0  0  0  0  0  0  0  0  0  0  0  0
    3.6667    0.6625    0.0000 C   0  0  0  0  0  0  0  0  0  0  0  0
    3.1042   -1.4875    0.0000 C   0  0  0  0  0  0  0  0  0  0  0  0
   -5.2458   -0.3375    0.0000 C   0  0  0  0  0  0  0  0  0  0  0  0
   -3.0708   -2.1542    0.0000 C   0  0  0  0  0  0  0  0  0  0  0  0
    4.8875    0.3333    0.0000 C   0  0  0  0  0  0  0  0  0  0  0  0
    4.3375   -1.8167    0.0000 C   0  0  0  0  0  0  0  0  0  0  0  0
   -5.2708   -1.6167    0.0000 C   0  0  0  0  0  0  0  0  0  0  0  0
   -4.3000   -2.4042    0.0000 C   0  0  0  0  0  0  0  0  0  0  0  0
    5.2375   -0.9292    0.0000 C   0  0  0  0  0  0  0  0  0  0  0  0
  2  1  1  0  0  0  0
  3  1  1  0  0  0  0
  4  1  2  0  0  0  0
  5  9  1  0  0  0  0
  6  3  2  0  0  0  0
  7  3  1  0  0  0  0
  8  6  1  0  0  0  0
  8  5  2  0  0  0  0
  9  7  2  0  0  0  0
 10  5  1  0  0  0  0
 11  2  1  0  0  0  0
 12  2  1  0  0  0  0
 13 10  1  0  0  0  0
 14 10  2  0  0  0  0
 15 11  1  0  0  0  0
 16 12  1  0  0  0  0
 17 13  2  0  0  0  0
 18 14  1  0  0  0  0
 19 15  1  0  0  0  0
 19 20  1  0  0  0  0
 20 16  1  0  0  0  0
 21 18  2  0  0  0  0
 21 17  1  0  0  0  0
M  END
>  <ID>
5226546

>  <Supplier>
ChemBridge

>  <clogP>
4.240000000000000e+000

>  <RB>
2

>  <tPSA>
2.031000000000000e+001

>  <Hacc>
1

>  <Hdon>
0

>  <LogSw>
-4.859000000000000e+000

>  <Group>
3

$$$$
6950197
 OpenBabel03312015312D

 18 20  0  0  0  0  0  0  0  0999 V2000
    4.4667   -3.3000    0.0000 C   0  0  3  0  0  0  0  0  0  0  0  0
    4.4667    1.1333    0.0000 C   0  0  0  0  0  0  0  0  0  0  0  0
    8.3042   -5.4792    0.0000 N   0  0  0  0  0  0  0  0  0  0  0  0
   12.1500    1.1333    0.0000 N   0  0  0  0  0  0  0  0  0  0  0  0
    8.3042    3.3000    0.0000 C   0  0  0  0  0  0  0  0  0  0  0  0
   12.1500   -3.3000    0.0000 C   0  0  0  0  0  0  0  0  0  0  0  0
    0.6292   -5.4792    0.0000 O   0  0  0  0  0  0  0  0  0  0  0  0
    0.6292    3.3000    0.0000 C   0  0  0  0  0  0  0  0  0  0  0  0
   -3.2125   -3.3000    0.0000 C   0  0  0  0  0  0  0  0  0  0  0  0
   -3.2125    1.1333    0.0000 C   0  0  0  0  0  0  0  0  0  0  0  0
   -6.9792   -5.4792    0.0000 C   0  0  0  0  0  0  0  0  0  0  0  0
    8.3042    7.7375    0.0000 O   0  0  0  0  0  0  0  0  0  0  0  0
   16.0000   -5.5667    0.0000 O   0  0  0  0  0  0  0  0  0  0  0  0
    4.4667   -7.7375    0.0000 O   0  0  0  0  0  0  0  0  0  0  0  0
   -6.9792    3.3000    0.0000 C   0  0  0  0  0  0  0  0  0  0  0  0
  -10.8292   -3.3000    0.0000 C   0  0  0  0  0  0  0  0  0  0  0  0
  -10.8292    1.1333    0.0000 C   0  0  0  0  0  0  0  0  0  0  0  0
  -14.7375   -5.5667    0.0000 O   0  0  0  0  0  0  0  0  0  0  0  0
  2  1  1  0  0  0  0
  3  1  1  0  0  0  0
  4  6  1  0  0  0  0
  5  2  1  0  0  0  0
  5  4  1  0  0  0  0
  6  3  1  0  0  0  0
  7  1  1  0  0  0  0
  8  2  2  0  0  0  0
  9  7  1  0  0  0  0
 10  9  2  0  0  0  0
 10  8  1  0  0  0  0
 11  9  1  0  0  0  0
 12  5  2  0  0  0  0
 13  6  2  0  0  0  0
 14  1  1  0  0  0  0
 15 10  1  0  0  0  0
 15 17  2  0  0  0  0
 16 11  2  0  0  0  0
 17 16  1  0  0  0  0
 18 16  1  0  0  0  0
M  END
>  <ID>
6950197

>  <Supplier>
ChemBridge

>  <clogP>
-7.000000000000001e-002

>  <RB>
0

>  <tPSA>
1.078900000000000e+002

>  <Hacc>
5

>  <Hdon>
4

>  <LogSw>
-1.681000000000000e+000

>  <Group>
3

$$$$
9153517
 OpenBabel03312015312D

 26 29  0  0  0  0  0  0  0  0999 V2000
    4.6417    2.5458    0.0000 C   0  0  0  0  0  0  0  0  0  0  0  0
    5.3292    2.2375    0.0000 N   0  0  0  0  0  0  0  0  0  0  0  0
    5.8292    2.7958    0.0000 C   0  0  0  0  0  0  0  0  0  0  0  0
    4.7250    3.2958    0.0000 C   0  0  3  0  0  0  0  0  0  0  0  0
    5.4542    3.4458    0.0000 C   0  0  0  0  0  0  0  0  0  0  0  0
    2.1792    3.8333    0.0000 C   0  0  0  0  0  0  0  0  0  0  0  0
    2.8917    4.0542    0.0000 N   0  0  0  0  0  0  0  0  0  0  0  0
    3.4542    3.5583    0.0000 C   0  0  0  0  0  0  0  0  0  0  0  0
    3.2917    2.8333    0.0000 N   0  0  0  0  0  0  0  0  0  0  0  0
    2.0250    3.0958    0.0000 C   0  0  0  0  0  0  0  0  0  0  0  0
    2.5792    2.5958    0.0000 C   0  0  0  0  0  0  0  0  0  0  0  0
    4.1667    3.7958    0.0000 C   0  0  0  0  0  0  0  0  0  0  0  0
    6.5792    2.7958    0.0000 C   0  0  0  0  0  0  0  0  0  0  0  0
    3.9917    2.1708    0.0000 O   0  0  0  0  0  0  0  0  0  0  0  0
    5.8292    4.0917    0.0000 C   0  0  0  0  0  0  0  0  0  0  0  0
    1.6250    4.3292    0.0000 O   0  0  0  0  0  0  0  0  0  0  0  0
    5.4875    1.5083    0.0000 C   0  0  0  0  0  0  0  0  0  0  0  0
    6.5792    4.0917    0.0000 C   0  0  0  0  0  0  0  0  0  0  0  0
    6.9542    3.4458    0.0000 C   0  0  0  0  0  0  0  0  0  0  0  0
    6.9542    4.7417    0.0000 Br  0  0  0  0  0  0  0  0  0  0  0  0
    1.3125    2.8625    0.0000 C   0  0  0  0  0  0  0  0  0  0  0  0
    2.4292    1.8625    0.0000 C   0  0  0  0  0  0  0  0  0  0  0  0
    6.2000    1.2750    0.0000 C   0  0  0  0  0  0  0  0  0  0  0  0
    4.9292    1.0083    0.0000 C   0  0  0  0  0  0  0  0  0  0  0  0
    1.1542    2.1333    0.0000 C   0  0  0  0  0  0  0  0  0  0  0  0
    1.7125    1.6333    0.0000 C   0  0  0  0  0  0  0  0  0  0  0  0
  2  1  1  0  0  0  0
  3  2  1  0  0  0  0
  4  1  1  0  0  0  0
  5  4  1  0  0  0  0
  5  3  2  0  0  0  0
  6  7  1  0  0  0  0
  6 10  1  0  0  0  0
  7  8  1  0  0  0  0
  8 12  1  0  0  0  0
  9  8  2  0  0  0  0
 10 11  1  0  0  0  0
 11  9  1  0  0  0  0
 12  4  1  0  0  0  0
 13  3  1  0  0  0  0
 14  1  2  0  0  0  0
 15  5  1  0  0  0  0
 16  6  2  0  0  0  0
 17  2  1  0  0  0  0
 18 15  2  0  0  0  0
 19 13  2  0  0  0  0
 19 18  1  0  0  0  0
 20 18  1  0  0  0  0
 21 10  2  0  0  0  0
 22 11  2  0  0  0  0
 23 17  1  0  0  0  0
 24 17  1  0  0  0  0
 25 26  2  0  0  0  0
 25 21  1  0  0  0  0
 26 22  1  0  0  0  0
M  END
>  <ID>
9153517

>  <Supplier>
ChemBridge

>  <clogP>
3.094000000000000e+000

>  <RB>
2

>  <tPSA>
6.606000000000000e+001

>  <Hacc>
3

>  <Hdon>
1

>  <LogSw>
-4.848000000000000e+000

>  <Group>
2

>  <Core>
061

$$$$
9153516
 OpenBabel03312015312D

 24 26  0  0  0  0  0  0  0  0999 V2000
    1.1667    3.7208    0.0000 C   0  0  0  0  0  0  0  0  0  0  0  0
    2.3167    3.3458    0.0000 C   0  0  0  0  0  0  0  0  0  0  0  0
    1.6042    3.1208    0.0000 N   0  0  0  0  0  0  0  0  0  0  0  0
    2.3167    4.0917    0.0000 C   0  0  0  0  0  0  0  0  0  0  0  0
    1.6042    4.3250    0.0000 N   0  0  0  0  0  0  0  0  0  0  0  0
    2.9667    2.9708    0.0000 N   0  0  0  0  0  0  0  0  0  0  0  0
    0.4167    3.7208    0.0000 N   0  0  0  0  0  0  0  0  0  0  0  0
    3.6167    3.3458    0.0000 C   0  0  0  0  0  0  0  0  0  0  0  0
    3.6167    4.0917    0.0000 N   0  0  0  0  0  0  0  0  0  0  0  0
    2.9667    4.4667    0.0000 C   0  0  0  0  0  0  0  0  0  0  0  0
   -0.0250    4.3250    0.0000 N   0  0  0  0  0  0  0  0  0  0  0  0
   -0.0250    3.1208    0.0000 C   0  0  0  0  0  0  0  0  0  0  0  0
   -0.7375    3.3458    0.0000 C   0  0  0  0  0  0  0  0  0  0  0  0
   -0.7375    4.0917    0.0000 C   0  0  0  0  0  0  0  0  0  0  0  0
    4.2667    2.9708    0.0000 O   0  0  0  0  0  0  0  0  0  0  0  0
    2.9667    5.2167    0.0000 O   0  0  0  0  0  0  0  0  0  0  0  0
    1.3750    5.0292    0.0000 C   0  0  0  0  0  0  0  0  0  0  0  0
    2.9667    2.2208    0.0000 C   0  0  0  0  0  0  0  0  0  0  0  0
    0.2042    2.4000    0.0000 C   0  0  0  0  0  0  0  0  0  0  0  0
   -1.3458    4.5292    0.0000 C   0  0  0  0  0  0  0  0  0  0  0  0
    1.8750    5.5917    0.0000 C   0  0  0  0  0  0  0  0  0  0  0  0
   -0.2958    1.8458    0.0000 C   0  0  0  0  0  0  0  0  0  0  0  0
   -2.0333    4.2292    0.0000 C   0  0  0  0  0  0  0  0  0  0  0  0
    1.6417    6.3042    0.0000 C   0  0  0  0  0  0  0  0  0  0  0  0
  2  3  1  0  0  0  0
  2  4  2  0  0  0  0
  3  1  2  0  0  0  0
  4  5  1  0  0  0  0
  5  1  1  0  0  0  0
  6  2  1  0  0  0  0
  7  1  1  0  0  0  0
  8  6  1  0  0  0  0
  8  9  1  0  0  0  0
  9 10  1  0  0  0  0
 10  4  1  0  0  0  0
 11  7  1  0  0  0  0
 12  7  1  0  0  0  0
 13 12  2  0  0  0  0
 14 11  2  0  0  0  0
 14 13  1  0  0  0  0
 15  8  2  0  0  0  0
 16 10  2  0  0  0  0
 17  5  1  0  0  0  0
 18  6  1  0  0  0  0
 19 12  1  0  0  0  0
 20 14  1  0  0  0  0
 21 17  1  0  0  0  0
 22 19  1  0  0  0  0
 23 20  1  0  0  0  0
 24 21  1  0  0  0  0
M  END
>  <ID>
9153516

>  <Supplier>
ChemBridge

>  <clogP>
2.767000000000000e+000

>  <RB>
1

>  <tPSA>
9.050000000000000e+001

>  <Hacc>
4

>  <Hdon>
1

>  <LogSw>
-3.972000000000000e+000

>  <Group>
2

>  <Core>
250

$$$$
9057612
 OpenBabel03312015312D

 27 29  0  0  0  0  0  0  0  0999 V2000
    3.1417    3.1875    0.0000 C   0  0  0  0  0  0  0  0  0  0  0  0
    2.8417    3.8750    0.0000 C   0  0  0  0  0  0  0  0  0  0  0  0
    2.0917    3.7958    0.0000 N   0  0  0  0  0  0  0  0  0  0  0  0
    2.5875    2.6875    0.0000 C   0  0  0  0  0  0  0  0  0  0  0  0
    1.9417    3.0625    0.0000 C   0  0  0  0  0  0  0  0  0  0  0  0
    5.6167    3.9958    0.0000 C   0  0  0  0  0  0  0  0  0  0  0  0
    6.3500    3.8375    0.0000 C   0  0  0  0  0  0  0  0  0  0  0  0
    5.3875    4.7000    0.0000 N   0  0  0  0  0  0  0  0  0  0  0  0
    6.8542    4.3875    0.0000 C   0  0  0  0  0  0  0  0  0  0  0  0
    3.8792    3.0333    0.0000 C   0  0  0  0  0  0  0  0  0  0  0  0
    6.5792    3.1208    0.0000 C   0  0  0  0  0  0  0  0  0  0  0  0
    6.8167    2.4083    0.0000 N   0  0  0  0  0  0  0  0  0  0  0  0
    5.1167    3.4333    0.0000 S   0  0  0  0  0  0  0  0  0  0  0  0
    5.8875    5.2542    0.0000 C   0  0  0  0  0  0  0  0  0  0  0  0
    6.6167    5.1042    0.0000 C   0  0  0  0  0  0  0  0  0  0  0  0
    4.3792    3.5958    0.0000 C   0  0  0  0  0  0  0  0  0  0  0  0
    4.1125    2.3208    0.0000 O   0  0  0  0  0  0  0  0  0  0  0  0
    1.5917    4.3417    0.0000 C   0  0  0  0  0  0  0  0  0  0  0  0
    3.2167    4.5167    0.0000 C   0  0  0  0  0  0  0  0  0  0  0  0
    2.5875    1.9375    0.0000 C   0  0  0  0  0  0  0  0  0  0  0  0
    1.2917    2.6875    0.0000 C   0  0  0  0  0  0  0  0  0  0  0  0
    7.5875    4.2292    0.0000 C   0  0  0  0  0  0  0  0  0  0  0  0
    8.0875    4.7917    0.0000 O   0  0  0  0  0  0  0  0  0  0  0  0
    5.6542    5.9667    0.0000 C   0  0  0  0  0  0  0  0  0  0  0  0
    8.8167    4.6292    0.0000 C   0  0  0  0  0  0  0  0  0  0  0  0
    1.9417    1.5625    0.0000 C   0  0  0  0  0  0  0  0  0  0  0  0
    1.2917    1.9375    0.0000 C   0  0  0  0  0  0  0  0  0  0  0  0
  2  1  2  0  0  0  0
  3  2  1  0  0  0  0
  4  1  1  0  0  0  0
  5  4  2  0  0  0  0
  5  3  1  0  0  0  0
  6 13  1  0  0  0  0
  7  6  1  0  0  0  0
  8  6  2  0  0  0  0
  9  7  2  0  0  0  0
  9 15  1  0  0  0  0
 10  1  1  0  0  0  0
 11  7  1  0  0  0  0
 12 11  3  0  0  0  0
 13 16  1  0  0  0  0
 14  8  1  0  0  0  0
 15 14  2  0  0  0  0
 16 10  1  0  0  0  0
 17 10  2  0  0  0  0
 18  3  1  0  0  0  0
 19  2  1  0  0  0  0
 20  4  1  0  0  0  0
 21  5  1  0  0  0  0
 22  9  1  0  0  0  0
 23 22  1  0  0  0  0
 24 14  1  0  0  0  0
 25 23  1  0  0  0  0
 26 20  2  0  0  0  0
 27 26  1  0  0  0  0
 27 21  2  0  0  0  0
M  END
>  <ID>
9057612

>  <Supplier>
ChemBridge

>  <clogP>
3.939000000000000e+000

>  <RB>
5

>  <tPSA>
6.791000000000000e+001

>  <Hacc>
4

>  <Hdon>
0

>  <LogSw>
-5.420000000000000e+000

>  <Group>
2

>  <Core>
042

$$$$
9057611
 OpenBabel03312015312D

 27 29  0  0  0  0  0  0  0  0999 V2000
    6.6792    1.9458    0.0000 N   0  0  0  0  0  0  0  0  0  0  0  0
    7.1167    2.5500    0.0000 C   0  0  0  0  0  0  0  0  0  0  0  0
    6.6792    3.1583    0.0000 N   0  0  0  0  0  0  0  0  0  0  0  0
    5.9625    2.1750    0.0000 C   0  0  0  0  0  0  0  0  0  0  0  0
    5.9625    2.9250    0.0000 O   0  0  0  0  0  0  0  0  0  0  0  0
    7.8667    2.5500    0.0000 C   0  0  0  0  0  0  0  0  0  0  0  0
    8.2417    1.9000    0.0000 C   0  0  0  0  0  0  0  0  0  0  0  0
    8.9917    1.9000    0.0000 C   0  0  0  0  0  0  0  0  0  0  0  0
    4.0667    1.6000    0.0000 C   0  0  0  0  0  0  0  0  0  0  0  0
    3.3792    1.9083    0.0000 N   0  0  0  0  0  0  0  0  0  0  0  0
    9.3667    2.5500    0.0000 C   0  0  0  0  0  0  0  0  0  0  0  0
    8.2417    3.2083    0.0000 C   0  0  0  0  0  0  0  0  0  0  0  0
    4.1417    0.8583    0.0000 O   0  0  0  0  0  0  0  0  0  0  0  0
    8.9917    3.2083    0.0000 C   0  0  0  0  0  0  0  0  0  0  0  0
    2.7750    1.4625    0.0000 C   0  0  0  0  0  0  0  0  0  0  0  0
    5.3542    1.7333    0.0000 C   0  0  0  0  0  0  0  0  0  0  0  0
    4.6667    2.0458    0.0000 C   0  0  0  0  0  0  0  0  0  0  0  0
    1.5542    0.5833    0.0000 C   0  0  0  0  0  0  0  0  0  0  0  0
    9.3667    1.2500    0.0000 O   0  0  0  0  0  0  0  0  0  0  0  0
    0.9542    0.1458    0.0000 Cl  0  0  0  0  0  0  0  0  0  0  0  0
    2.8500    0.7208    0.0000 C   0  0  0  0  0  0  0  0  0  0  0  0
    2.0875    1.7708    0.0000 C   0  0  0  0  0  0  0  0  0  0  0  0
   10.1167    2.5500    0.0000 O   0  0  0  0  0  0  0  0  0  0  0  0
    2.2417    0.2750    0.0000 C   0  0  0  0  0  0  0  0  0  0  0  0
    1.4792    1.3333    0.0000 C   0  0  0  0  0  0  0  0  0  0  0  0
    8.9917    0.6083    0.0000 C   0  0  0  0  0  0  0  0  0  0  0  0
   10.4917    3.2083    0.0000 C   0  0  0  0  0  0  0  0  0  0  0  0
  2  1  1  0  0  0  0
  3  2  2  0  0  0  0
  3  5  1  0  0  0  0
  4  1  2  0  0  0  0
  5  4  1  0  0  0  0
  6  2  1  0  0  0  0
  7  6  2  0  0  0  0
  8  7  1  0  0  0  0
  8 11  2  0  0  0  0
  9 17  1  0  0  0  0
 10  9  1  0  0  0  0
 11 14  1  0  0  0  0
 12  6  1  0  0  0  0
 13  9  2  0  0  0  0
 14 12  2  0  0  0  0
 15 10  1  0  0  0  0
 16  4  1  0  0  0  0
 17 16  1  0  0  0  0
 18 25  1  0  0  0  0
 18 24  2  0  0  0  0
 19  8  1  0  0  0  0
 20 18  1  0  0  0  0
 21 15  2  0  0  0  0
 22 15  1  0  0  0  0
 23 11  1  0  0  0  0
 24 21  1  0  0  0  0
 25 22  2  0  0  0  0
 26 19  1  0  0  0  0
 27 23  1  0  0  0  0
M  END
>  <ID>
9057611

>  <Supplier>
ChemBridge

>  <clogP>
3.198000000000000e+000

>  <RB>
5

>  <tPSA>
8.647999999999999e+001

>  <Hacc>
6

>  <Hdon>
1

>  <LogSw>
-4.659000000000000e+000

>  <Group>
2

>  <Core>
206

$$$$
7866131
 OpenBabel03312015312D

 24 27  0  0  0  0  0  0  0  0999 V2000
    6.8917    2.1458    0.0000 C   0  0  0  0  0  0  0  0  0  0  0  0
    7.4500    2.6458    0.0000 C   0  0  0  0  0  0  0  0  0  0  0  0
    7.1417    3.3333    0.0000 C   0  0  0  0  0  0  0  0  0  0  0  0
    6.2417    2.5208    0.0000 C   0  0  0  0  0  0  0  0  0  0  0  0
    6.4000    3.2500    0.0000 S   0  0  0  0  0  0  0  0  0  0  0  0
    8.1917    2.5625    0.0000 C   0  0  0  0  0  0  0  0  0  0  0  0
    7.5875    3.9333    0.0000 N   0  0  0  0  0  0  0  0  0  0  0  0
    8.6375    3.1708    0.0000 N   0  0  0  0  0  0  0  0  0  0  0  0
    6.8917    1.3875    0.0000 C   0  0  0  0  0  0  0  0  0  0  0  0
    5.5917    1.3875    0.0000 O   0  0  0  0  0  0  0  0  0  0  0  0
    8.3292    3.8583    0.0000 C   0  0  0  0  0  0  0  0  0  0  0  0
    6.2417    1.0125    0.0000 C   0  0  0  0  0  0  0  0  0  0  0  0
    5.5917    2.1458    0.0000 C   0  0  0  0  0  0  0  0  0  0  0  0
    8.5000    1.8833    0.0000 N   0  0  0  0  0  0  0  0  0  0  0  0
    9.2417    1.8000    0.0000 C   0  0  0  0  0  0  0  0  0  0  0  0
   10.2917    1.0375    0.0000 C   0  0  0  0  0  0  0  0  0  0  0  0
    5.7625    0.4458    0.0000 C   0  0  0  0  0  0  0  0  0  0  0  0
    6.7250    0.4458    0.0000 C   0  0  0  0  0  0  0  0  0  0  0  0
    9.5500    1.1125    0.0000 C   0  0  0  0  0  0  0  0  0  0  0  0
   10.6042    0.3500    0.0000 C   0  0  0  0  0  0  0  0  0  0  0  0
   10.7375    1.6458    0.0000 C   0  0  0  0  0  0  0  0  0  0  0  0
   11.4792    1.5625    0.0000 C   0  0  0  0  0  0  0  0  0  0  0  0
   11.3500    0.2708    0.0000 C   0  0  0  0  0  0  0  0  0  0  0  0
   11.7875    0.8833    0.0000 C   0  0  0  0  0  0  0  0  0  0  0  0
  2  1  1  0  0  0  0
  3  2  2  0  0  0  0
  3  5  1  0  0  0  0
  4  1  2  0  0  0  0
  5  4  1  0  0  0  0
  6  2  1  0  0  0  0
  7  3  1  0  0  0  0
  8  6  2  0  0  0  0
  9  1  1  0  0  0  0
 10 12  1  0  0  0  0
 11  8  1  0  0  0  0
 11  7  2  0  0  0  0
 12  9  1  0  0  0  0
 13  4  1  0  0  0  0
 13 10  1  0  0  0  0
 14  6  1  0  0  0  0
 15 14  1  0  0  0  0
 16 19  1  0  0  0  0
 17 12  1  0  0  0  0
 18 12  1  0  0  0  0
 19 15  1  0  0  0  0
 20 16  1  0  0  0  0
 21 16  2  0  0  0  0
 22 21  1  0  0  0  0
 23 20  2  0  0  0  0
 24 22  2  0  0  0  0
 24 23  1  0  0  0  0
M  END
>  <ID>
7866131

>  <Supplier>
ChemBridge

>  <clogP>
4.324999999999994e+000

>  <RB>
4

>  <tPSA>
4.704000000000000e+001

>  <Hacc>
3

>  <Hdon>
1

>  <LogSw>
-5.369000000000000e+000

>  <Group>
3

>  <Core>
330

$$$$
9057615
 OpenBabel03312015312D

 28 31  0  0  0  0  0  0  0  0999 V2000
    4.7667    1.2125    0.0000 C   0  0  0  0  0  0  0  0  0  0  0  0
    5.1417    1.8583    0.0000 C   0  0  0  0  0  0  0  0  0  0  0  0
    5.8792    1.7083    0.0000 C   0  0  0  0  0  0  0  0  0  0  0  0
    5.2750    0.6583    0.0000 S   0  0  0  0  0  0  0  0  0  0  0  0
    5.9542    0.9583    0.0000 C   0  0  0  0  0  0  0  0  0  0  0  0
    4.0167    1.2125    0.0000 C   0  0  0  0  0  0  0  0  0  0  0  0
    3.6417    1.8583    0.0000 N   0  0  0  0  0  0  0  0  0  0  0  0
    4.7667    2.5083    0.0000 N   0  0  0  0  0  0  0  0  0  0  0  0
    6.6417    0.6583    0.0000 N   0  0  0  0  0  0  0  0  0  0  0  0
    4.0167    2.5083    0.0000 C   0  0  0  0  0  0  0  0  0  0  0  0
    7.2500    1.0958    0.0000 C   0  0  0  0  0  0  0  0  0  0  0  0
    6.4875    2.1458    0.0000 C   0  0  0  0  0  0  0  0  0  0  0  0
    7.1667    1.8458    0.0000 C   0  0  0  0  0  0  0  0  0  0  0  0
    2.5167    2.5083    0.0000 C   0  0  0  0  0  0  0  0  0  0  0  0
    2.8917    1.8583    0.0000 C   0  0  0  0  0  0  0  0  0  0  0  0
    7.9375    0.7875    0.0000 C   0  0  0  0  0  0  0  0  0  0  0  0
    8.4625    1.9750    0.0000 O   0  0  0  0  0  0  0  0  0  0  0  0
    8.5417    1.2333    0.0000 C   0  0  0  0  0  0  0  0  0  0  0  0
    3.6417    0.5625    0.0000 O   0  0  0  0  0  0  0  0  0  0  0  0
    1.7667    2.5083    0.0000 N   0  0  0  0  0  0  0  0  0  0  0  0
    7.7792    2.2833    0.0000 C   0  0  0  0  0  0  0  0  0  0  0  0
    2.8917    3.1583    0.0000 O   0  0  0  0  0  0  0  0  0  0  0  0
    1.3917    3.1583    0.0000 C   0  0  0  0  0  0  0  0  0  0  0  0
    1.3917    1.8583    0.0000 C   0  0  0  0  0  0  0  0  0  0  0  0
    8.8667    0.5583    0.0000 C   0  0  0  0  0  0  0  0  0  0  0  0
    9.2625    1.4375    0.0000 C   0  0  0  0  0  0  0  0  0  0  0  0
    0.6417    3.1583    0.0000 C   0  0  0  0  0  0  0  0  0  0  0  0
    0.6417    1.8583    0.0000 C   0  0  0  0  0  0  0  0  0  0  0  0
  2  1  2  0  0  0  0
  3  2  1  0  0  0  0
  4  1  1  0  0  0  0
  5  4  1  0  0  0  0
  5  3  1  0  0  0  0
  6  1  1  0  0  0  0
  7  6  1  0  0  0  0
  8  2  1  0  0  0  0
  9  5  2  0  0  0  0
 10  7  1  0  0  0  0
 10  8  2  0  0  0  0
 11  9  1  0  0  0  0
 11 13  2  0  0  0  0
 12  3  2  0  0  0  0
 13 12  1  0  0  0  0
 14 15  1  0  0  0  0
 15  7  1  0  0  0  0
 16 11  1  0  0  0  0
 17 21  1  0  0  0  0
 17 18  1  0  0  0  0
 18 16  1  0  0  0  0
 19  6  2  0  0  0  0
 20 14  1  0  0  0  0
 21 13  1  0  0  0  0
 22 14  2  0  0  0  0
 23 20  1  0  0  0  0
 24 20  1  0  0  0  0
 25 18  1  0  0  0  0
 26 18  1  0  0  0  0
 27 23  1  0  0  0  0
 28 24  1  0  0  0  0
M  END
>  <ID>
9057615

>  <Supplier>
ChemBridge

>  <clogP>
1.674000000000000e+000

>  <RB>
2

>  <tPSA>
7.731999999999999e+001

>  <Hacc>
5

>  <Hdon>
0

>  <LogSw>
-3.441000000000000e+000

>  <Group>
1

$$$$
9026218
 OpenBabel03312015312D

 23 26  0  0  0  0  0  0  0  0999 V2000
    5.6125    1.7958    0.0000 N   0  0  0  0  0  0  0  0  0  0  0  0
    5.2375    1.1458    0.0000 C   0  0  0  0  0  0  0  0  0  0  0  0
    5.2375    2.4458    0.0000 C   0  0  0  0  0  0  0  0  0  0  0  0
    5.7417    0.5875    0.0000 N   0  0  0  0  0  0  0  0  0  0  0  0
    4.4875    2.4458    0.0000 C   0  0  0  0  0  0  0  0  0  0  0  0
    4.4875    1.1458    0.0000 N   0  0  0  0  0  0  0  0  0  0  0  0
    6.3417    1.6375    0.0000 C   0  0  0  0  0  0  0  0  0  0  0  0
    6.4250    0.8958    0.0000 C   0  0  0  0  0  0  0  0  0  0  0  0
    4.1125    1.7958    0.0000 C   0  0  0  0  0  0  0  0  0  0  0  0
    5.6125    3.0958    0.0000 O   0  0  0  0  0  0  0  0  0  0  0  0
    2.9875    1.1458    0.0000 S   0  0  0  0  0  0  0  0  0  0  0  0
    3.3625    1.7958    0.0000 C   0  0  0  0  0  0  0  0  0  0  0  0
    2.2375    1.1458    0.0000 C   0  0  0  0  0  0  0  0  0  0  0  0
    0.7375    1.1458    0.0000 C   0  0  0  0  0  0  0  0  0  0  0  0
    1.8625    0.4958    0.0000 C   0  0  0  0  0  0  0  0  0  0  0  0
    1.8625    1.7958    0.0000 C   0  0  0  0  0  0  0  0  0  0  0  0
    1.1125    1.7958    0.0000 C   0  0  0  0  0  0  0  0  0  0  0  0
    1.1125    0.4958    0.0000 C   0  0  0  0  0  0  0  0  0  0  0  0
    6.9542    2.0833    0.0000 C   0  0  0  0  0  0  0  0  0  0  0  0
    7.1125    0.5875    0.0000 C   0  0  0  0  0  0  0  0  0  0  0  0
   -0.0125    1.1458    0.0000 C   0  0  0  0  0  0  0  0  0  0  0  0
    7.6375    1.7750    0.0000 C   0  0  0  0  0  0  0  0  0  0  0  0
    7.7167    1.0333    0.0000 C   0  0  0  0  0  0  0  0  0  0  0  0
  2  1  1  0  0  0  0
  3  1  1  0  0  0  0
  4  2  2  0  0  0  0
  4  8  1  0  0  0  0
  5  3  1  0  0  0  0
  6  2  1  0  0  0  0
  7  1  1  0  0  0  0
  8  7  2  0  0  0  0
  9  5  2  0  0  0  0
  9  6  1  0  0  0  0
 10  3  2  0  0  0  0
 11 12  1  0  0  0  0
 12  9  1  0  0  0  0
 13 11  1  0  0  0  0
 14 17  1  0  0  0  0
 15 13  2  0  0  0  0
 16 13  1  0  0  0  0
 17 16  2  0  0  0  0
 18 15  1  0  0  0  0
 18 14  2  0  0  0  0
 19  7  1  0  0  0  0
 20  8  1  0  0  0  0
 20 23  2  0  0  0  0
 21 14  1  0  0  0  0
 22 19  2  0  0  0  0
 23 22  1  0  0  0  0
M  END
>  <ID>
9026218

>  <Supplier>
ChemBridge

>  <clogP>
3.078000000000000e+000

>  <RB>
3

>  <tPSA>
5.016000000000000e+001

>  <Hacc>
2

>  <Hdon>
1

>  <LogSw>
-4.172000000000000e+000

>  <Group>
2

>  <Core>
258

$$$$
9033297
 OpenBabel03312015312D

 20 21  0  0  0  0  0  0  0  0999 V2000
    5.3125    3.4208    0.0000 S   0  0  0  0  0  0  0  0  0  0  0  0
    4.1542    3.0458    0.0000 C   0  0  3  0  0  0  0  0  0  0  0  0
    3.4042    3.0458    0.0000 N   0  0  0  0  0  0  0  0  0  0  0  0
    4.6000    3.6500    0.0000 C   0  0  0  0  0  0  0  0  0  0  0  0
    4.6000    2.4375    0.0000 C   0  0  0  0  0  0  0  0  0  0  0  0
    5.3125    2.6708    0.0000 C   0  0  0  0  0  0  0  0  0  0  0  0
    3.0292    2.3958    0.0000 C   0  0  0  0  0  0  0  0  0  0  0  0
    3.0292    3.6958    0.0000 C   0  0  0  0  0  0  0  0  0  0  0  0
    6.0542    3.3458    0.0000 O   0  0  0  0  0  0  0  0  0  0  0  0
    5.4667    4.1500    0.0000 O   0  0  0  0  0  0  0  0  0  0  0  0
    2.2792    2.3958    0.0000 C   0  0  0  0  0  0  0  0  0  0  0  0
    2.2792    3.6958    0.0000 O   0  0  0  0  0  0  0  0  0  0  0  0
    1.9042    3.0458    0.0000 O   0  0  0  0  0  0  0  0  0  0  0  0
    3.4042    1.7458    0.0000 C   0  0  0  0  0  0  0  0  0  0  0  0
    3.4042    4.3375    0.0000 C   0  0  0  0  0  0  0  0  0  0  0  0
    1.9042    1.7458    0.0000 C   0  0  0  0  0  0  0  0  0  0  0  0
    1.1542    3.0458    0.0000 C   0  0  0  0  0  0  0  0  0  0  0  0
    3.0292    1.0958    0.0000 C   0  0  0  0  0  0  0  0  0  0  0  0
    0.7792    3.6958    0.0000 C   0  0  0  0  0  0  0  0  0  0  0  0
    2.2792    1.0958    0.0000 C   0  0  0  0  0  0  0  0  0  0  0  0
  2  4  1  0  0  0  0
  3  2  1  0  0  0  0
  4  1  1  0  0  0  0
  5  6  2  0  0  0  0
  5  2  1  0  0  0  0
  6  1  1  0  0  0  0
  7  3  1  0  0  0  0
  8  3  1  0  0  0  0
  9  1  2  0  0  0  0
 10  1  2  0  0  0  0
 11  7  2  0  0  0  0
 12  8  2  0  0  0  0
 13 11  1  0  0  0  0
 14  7  1  0  0  0  0
 15  8  1  0  0  0  0
 16 11  1  0  0  0  0
 17 13  1  0  0  0  0
 18 14  2  0  0  0  0
 19 17  1  0  0  0  0
 20 18  1  0  0  0  0
 20 16  2  0  0  0  0
M  END
>  <ID>
9033297

>  <Supplier>
ChemBridge

>  <clogP>
6.100000000000000e-001

>  <RB>
2

>  <tPSA>
6.367999999999994e+001

>  <Hacc>
4

>  <Hdon>
0

>  <LogSw>
-1.875000000000000e+000

>  <Group>
1

$$$$
7656899
 OpenBabel03312015312D

 32 34  0  0  0  0  0  0  0  0999 V2000
    4.4875    0.8333    0.0000 S   0  0  0  0  0  0  0  0  0  0  0  0
   -1.1708    0.8333    0.0000 S   0  0  0  0  0  0  0  0  0  0  0  0
    2.3292    0.5708    0.0000 C   0  0  0  0  0  0  0  0  0  0  0  0
    0.9917    0.5625    0.0000 C   0  0  0  0  0  0  0  0  0  0  0  0
    2.0667    1.3500    0.0000 C   0  0  0  0  0  0  0  0  0  0  0  0
    1.2542    1.3500    0.0000 C   0  0  0  0  0  0  0  0  0  0  0  0
    1.6625    0.0833    0.0000 C   0  0  0  0  0  0  0  0  0  0  0  0
    3.6792    1.0083    0.0000 C   0  0  0  0  0  0  0  0  0  0  0  0
   -0.3625    1.0083    0.0000 C   0  0  0  0  0  0  0  0  0  0  0  0
    3.1292    0.3958    0.0000 C   0  0  0  0  0  0  0  0  0  0  0  0
    0.1917    0.3958    0.0000 C   0  0  0  0  0  0  0  0  0  0  0  0
    2.6250    1.9583    0.0000 C   0  0  0  0  0  0  0  0  0  0  0  0
    0.7042    1.9625    0.0000 C   0  0  0  0  0  0  0  0  0  0  0  0
   -1.7208    1.4458    0.0000 O   0  0  0  0  0  0  0  0  0  0  0  0
   -1.4208    0.0458    0.0000 O   0  0  0  0  0  0  0  0  0  0  0  0
    4.7417    0.0458    0.0000 O   0  0  0  0  0  0  0  0  0  0  0  0
    5.0417    1.4458    0.0000 O   0  0  0  0  0  0  0  0  0  0  0  0
    5.2792    0.6208    0.0000 N   0  0  0  0  0  0  0  0  0  0  0  0
   -1.9708    0.6208    0.0000 N   0  0  0  0  0  0  0  0  0  0  0  0
    3.4250    1.7875    0.0000 C   0  0  0  0  0  0  0  0  0  0  0  0
   -0.1083    1.7958    0.0000 C   0  0  0  0  0  0  0  0  0  0  0  0
    1.6667   -0.7417    0.0000 O   0  0  0  0  0  0  0  0  0  0  0  0
    5.4917   -0.1792    0.0000 C   0  0  0  0  0  0  0  0  0  0  0  0
   -2.5500    1.2083    0.0000 C   0  0  0  0  0  0  0  0  0  0  0  0
    6.2917   -0.3917    0.0000 C   0  0  0  0  0  0  0  0  0  0  0  0
   -3.3458    0.9958    0.0000 C   0  0  0  0  0  0  0  0  0  0  0  0
    6.5042   -1.1875    0.0000 C   0  0  0  0  0  0  0  0  0  0  0  0
   -3.9333    1.5833    0.0000 C   0  0  0  0  0  0  0  0  0  0  0  0
    5.9250   -1.7667    0.0000 C   0  0  0  0  0  0  0  0  0  0  0  0
    7.3042   -1.4000    0.0000 C   0  0  0  0  0  0  0  0  0  0  0  0
   -3.7083    2.3833    0.0000 C   0  0  0  0  0  0  0  0  0  0  0  0
   -4.7250    1.3708    0.0000 C   0  0  0  0  0  0  0  0  0  0  0  0
  2  9  1  0  0  0  0
  3 10  1  0  0  0  0
  4  7  1  0  0  0  0
  4  6  2  0  0  0  0
  5 12  1  0  0  0  0
  5  3  2  0  0  0  0
  6  5  1  0  0  0  0
  7  3  1  0  0  0  0
  8  1  1  0  0  0  0
  9 11  2  0  0  0  0
 10  8  2  0  0  0  0
 11  4  1  0  0  0  0
 12 20  2  0  0  0  0
 13  6  1  0  0  0  0
 14  2  2  0  0  0  0
 15  2  2  0  0  0  0
 16  1  2  0  0  0  0
 17  1  2  0  0  0  0
 18  1  1  0  0  0  0
 19  2  1  0  0  0  0
 20  8  1  0  0  0  0
 21 13  2  0  0  0  0
 21  9  1  0  0  0  0
 22  7  1  0  0  0  0
 23 18  1  0  0  0  0
 24 19  1  0  0  0  0
 25 23  1  0  0  0  0
 26 24  1  0  0  0  0
 27 25  1  0  0  0  0
 28 26  1  0  0  0  0
 29 27  1  0  0  0  0
 30 27  1  0  0  0  0
 31 28  1  0  0  0  0
 32 28  1  0  0  0  0
M  END
>  <ID>
7656899

>  <Supplier>
ChemBridge

>  <clogP>
4.119000000000000e+000

>  <RB>
6

>  <tPSA>
1.125700000000000e+002

>  <Hacc>
7

>  <Hdon>
3

>  <LogSw>
-7.381000000000000e+000

>  <Group>
1

$$$$
9153513
 OpenBabel03312015312D

 15 16  0  0  0  0  0  0  0  0999 V2000
    3.0417    2.1625    0.0000 C   0  0  0  0  0  0  0  0  0  0  0  0
    2.4375    2.6000    0.0000 N   0  0  0  0  0  0  0  0  0  0  0  0
    2.8125    1.4458    0.0000 N   0  0  0  0  0  0  0  0  0  0  0  0
    2.0625    1.4458    0.0000 N   0  0  0  0  0  0  0  0  0  0  0  0
    1.8292    2.1625    0.0000 N   0  0  0  0  0  0  0  0  0  0  0  0
    3.7542    2.3958    0.0000 N   0  0  0  0  0  0  0  0  0  0  0  0
    5.0250    2.1208    0.0000 C   0  0  0  0  0  0  0  0  0  0  0  0
    4.3125    1.8958    0.0000 C   0  0  0  0  0  0  0  0  0  0  0  0
    5.6292    1.6833    0.0000 O   0  0  0  0  0  0  0  0  0  0  0  0
    6.2417    2.1208    0.0000 C   0  0  0  0  0  0  0  0  0  0  0  0
    5.2542    2.8375    0.0000 C   0  0  0  0  0  0  0  0  0  0  0  0
    6.0042    2.8375    0.0000 C   0  0  0  0  0  0  0  0  0  0  0  0
    4.1542    1.1583    0.0000 O   0  0  0  0  0  0  0  0  0  0  0  0
    6.9542    1.8958    0.0000 Br  0  0  0  0  0  0  0  0  0  0  0  0
    1.1167    2.3958    0.0000 C   0  0  0  0  0  0  0  0  0  0  0  0
  2  1  2  0  0  0  0
  3  1  1  0  0  0  0
  4  3  2  0  0  0  0
  4  5  1  0  0  0  0
  5  2  1  0  0  0  0
  6  1  1  0  0  0  0
  7  8  1  0  0  0  0
  8  6  1  0  0  0  0
  9  7  1  0  0  0  0
 10  9  1  0  0  0  0
 10 12  2  0  0  0  0
 11  7  2  0  0  0  0
 12 11  1  0  0  0  0
 13  8  2  0  0  0  0
 14 10  1  0  0  0  0
 15  5  1  0  0  0  0
M  END
>  <ID>
9153513

>  <Supplier>
ChemBridge

>  <clogP>
3.320000000000000e-001

>  <RB>
2

>  <tPSA>
8.584000000000000e+001

>  <Hacc>
5

>  <Hdon>
1

>  <LogSw>
-2.778000000000000e+000

>  <Group>
2

$$$$
5182236
 OpenBabel03312015312D

 12 12  0  0  0  0  0  0  0  0999 V2000
   -0.2500    0.4833    0.0000 C   0  0  0  0  0  0  0  0  0  0  0  0
    0.4292    0.9000    0.0000 N   0  3  0  0  0  0  0  0  0  0  0  0
   -0.2500   -0.3000    0.0000 C   0  0  0  0  0  0  0  0  0  0  0  0
   -0.9333   -0.6875    0.0000 C   0  0  0  0  0  0  0  0  0  0  0  0
   -0.9333    0.8708    0.0000 C   0  0  0  0  0  0  0  0  0  0  0  0
   -1.6125   -0.3000    0.0000 C   0  0  0  0  0  0  0  0  0  0  0  0
    1.1042    0.5125    0.0000 O   0  5  0  0  0  0  0  0  0  0  0  0
    0.4292    1.6833    0.0000 O   0  0  0  0  0  0  0  0  0  0  0  0
   -1.6125    0.4833    0.0000 C   0  0  0  0  0  0  0  0  0  0  0  0
    0.4292   -0.6875    0.0000 N   0  0  0  0  0  0  0  0  0  0  0  0
   -0.9333   -1.4667    0.0000 Cl  0  0  0  0  0  0  0  0  0  0  0  0
   -2.2958    0.9000    0.0000 Cl  0  0  0  0  0  0  0  0  0  0  0  0
  2  1  1  0  0  0  0
  3  1  2  0  0  0  0
  4  3  1  0  0  0  0
  5  1  1  0  0  0  0
  6  9  1  0  0  0  0
  6  4  2  0  0  0  0
  7  2  1  0  0  0  0
  8  2  2  0  0  0  0
  9  5  2  0  0  0  0
 10  3  1  0  0  0  0
 11  4  1  0  0  0  0
 12  9  1  0  0  0  0
M  CHG  2   2   1   7  -1
M  END
>  <ID>
5182236

>  <Supplier>
ChemBridge

>  <clogP>
3.330000000000000e+000

>  <RB>
0

>  <tPSA>
6.916000000000000e+001

>  <Hacc>
2

>  <Hdon>
1

>  <LogSw>
-3.555000000000000e+000

>  <Group>
3

$$$$
7751754
 OpenBabel03312015312D

 25 27  0  0  0  0  0  0  0  0999 V2000
    3.7125   -2.3292    0.0000 N   0  0  0  0  0  0  0  0  0  0  0  0
    2.9542   -2.6667    0.0000 C   0  0  0  0  0  0  0  0  0  0  0  0
    3.0417   -3.4917    0.0000 N   0  0  0  0  0  0  0  0  0  0  0  0
    4.2667   -2.9417    0.0000 C   0  0  0  0  0  0  0  0  0  0  0  0
    3.8542   -3.6625    0.0000 O   0  0  0  0  0  0  0  0  0  0  0  0
    2.2417   -2.2625    0.0000 C   0  0  0  0  0  0  0  0  0  0  0  0
    6.3917   -3.4375    0.0000 C   0  0  0  0  0  0  0  0  0  0  0  0
    6.7292   -2.6792    0.0000 O   0  0  0  0  0  0  0  0  0  0  0  0
    6.8792   -4.1042    0.0000 O   0  0  0  0  0  0  0  0  0  0  0  0
    2.2417   -1.4292    0.0000 C   0  0  0  0  0  0  0  0  0  0  0  0
    1.5250   -2.6750    0.0000 C   0  0  0  0  0  0  0  0  0  0  0  0
    5.0875   -2.8542    0.0000 C   0  0  0  0  0  0  0  0  0  0  0  0
    5.5667   -3.5250    0.0000 C   0  0  0  0  0  0  0  0  0  0  0  0
    0.8125   -1.4375    0.0000 C   0  0  0  0  0  0  0  0  0  0  0  0
    8.0042   -6.8542    0.0000 C   0  0  0  0  0  0  0  0  0  0  0  0
    7.0292   -5.5250    0.0000 C   0  0  0  0  0  0  0  0  0  0  0  0
    6.5417   -4.8542    0.0000 C   0  0  0  0  0  0  0  0  0  0  0  0
    0.8125   -2.2625    0.0000 C   0  0  0  0  0  0  0  0  0  0  0  0
    1.5250   -1.0167    0.0000 C   0  0  0  0  0  0  0  0  0  0  0  0
    0.1000   -1.0167    0.0000 Cl  0  0  0  0  0  0  0  0  0  0  0  0
    8.4917   -7.5167    0.0000 Br  0  0  0  0  0  0  0  0  0  0  0  0
    8.3417   -6.0917    0.0000 C   0  0  0  0  0  0  0  0  0  0  0  0
    7.1875   -6.9417    0.0000 C   0  0  0  0  0  0  0  0  0  0  0  0
    7.8500   -5.4292    0.0000 C   0  0  0  0  0  0  0  0  0  0  0  0
    6.7000   -6.2792    0.0000 C   0  0  0  0  0  0  0  0  0  0  0  0
  2  1  1  0  0  0  0
  3  2  2  0  0  0  0
  3  5  1  0  0  0  0
  4  1  2  0  0  0  0
  5  4  1  0  0  0  0
  6  2  1  0  0  0  0
  7 13  1  0  0  0  0
  8  7  2  0  0  0  0
  9  7  1  0  0  0  0
 10  6  1  0  0  0  0
 11  6  2  0  0  0  0
 12  4  1  0  0  0  0
 13 12  1  0  0  0  0
 14 18  2  0  0  0  0
 15 23  2  0  0  0  0
 16 17  1  0  0  0  0
 17  9  1  0  0  0  0
 18 11  1  0  0  0  0
 19 10  2  0  0  0  0
 19 14  1  0  0  0  0
 20 14  1  0  0  0  0
 21 15  1  0  0  0  0
 22 24  2  0  0  0  0
 22 15  1  0  0  0  0
 23 25  1  0  0  0  0
 24 16  1  0  0  0  0
 25 16  2  0  0  0  0
M  END
>  <ID>
7751754

>  <Supplier>
ChemBridge

>  <clogP>
4.856999999999998e+000

>  <RB>
7

>  <tPSA>
6.522000000000000e+001

>  <Hacc>
5

>  <Hdon>
0

>  <LogSw>
-6.807000000000000e+000

>  <Group>
1

>  <Core>
206

$$$$
5553566
 OpenBabel03312015312D

 22 23  0  0  0  0  0  0  0  0999 V2000
    4.4667   -4.6542    0.0000 C   0  0  0  0  0  0  0  0  0  0  0  0
    4.4625   -5.4042    0.0000 C   0  0  0  0  0  0  0  0  0  0  0  0
    5.1167   -4.2792    0.0000 N   0  0  0  0  0  0  0  0  0  0  0  0
    5.1167   -3.5292    0.0000 C   0  0  0  0  0  0  0  0  0  0  0  0
    5.7667   -3.1542    0.0000 C   0  0  0  0  0  0  0  0  0  0  0  0
    4.4667   -3.1542    0.0000 C   0  0  0  0  0  0  0  0  0  0  0  0
    3.8167   -4.2792    0.0000 O   0  0  0  0  0  0  0  0  0  0  0  0
    3.8042   -5.7667    0.0000 F   0  0  0  0  0  0  0  0  0  0  0  0
    5.1042   -5.7792    0.0000 F   0  0  0  0  0  0  0  0  0  0  0  0
    4.3417   -6.0417    0.0000 F   0  0  0  0  0  0  0  0  0  0  0  0
    5.7667   -2.4042    0.0000 C   0  0  0  0  0  0  0  0  0  0  0  0
    3.8167   -3.5292    0.0000 C   0  0  0  0  0  0  0  0  0  0  0  0
    4.4667   -2.4042    0.0000 C   0  0  0  0  0  0  0  0  0  0  0  0
    6.4167   -3.5292    0.0000 C   0  0  0  0  0  0  0  0  0  0  0  0
    3.1667   -2.4042    0.0000 C   0  0  0  0  0  0  0  0  0  0  0  0
    7.0667   -2.4042    0.0000 C   0  0  0  0  0  0  0  0  0  0  0  0
    3.1667   -3.1542    0.0000 C   0  0  0  0  0  0  0  0  0  0  0  0
    7.0667   -3.1542    0.0000 C   0  0  0  0  0  0  0  0  0  0  0  0
    3.8167   -2.0250    0.0000 C   0  0  0  0  0  0  0  0  0  0  0  0
    6.4167   -2.0292    0.0000 C   0  0  0  0  0  0  0  0  0  0  0  0
    7.7167   -2.0375    0.0000 Cl  0  0  0  0  0  0  0  0  0  0  0  0
    2.5167   -2.0292    0.0000 Cl  0  0  0  0  0  0  0  0  0  0  0  0
  2  1  1  0  0  0  0
  3  1  1  0  0  0  0
  4  3  1  0  0  0  0
  5  4  1  0  0  0  0
  6  4  1  0  0  0  0
  7  1  2  0  0  0  0
  8  2  1  0  0  0  0
  9  2  1  0  0  0  0
 10  2  1  0  0  0  0
 11  5  2  0  0  0  0
 12  6  1  0  0  0  0
 13  6  2  0  0  0  0
 14  5  1  0  0  0  0
 15 19  2  0  0  0  0
 15 17  1  0  0  0  0
 16 18  1  0  0  0  0
 16 20  2  0  0  0  0
 17 12  2  0  0  0  0
 18 14  2  0  0  0  0
 19 13  1  0  0  0  0
 20 11  1  0  0  0  0
 21 16  1  0  0  0  0
 22 15  1  0  0  0  0
M  END
>  <ID>
5553566

>  <Supplier>
ChemBridge

>  <clogP>
4.830000000000000e+000

>  <RB>
3

>  <tPSA>
2.910000000000000e+001

>  <Hacc>
1

>  <Hdon>
1

>  <LogSw>
-5.863000000000000e+000

>  <Group>
2

$$$$
5553567
 OpenBabel03312015312D

 21 21  0  0  0  0  0  0  0  0999 V2000
   -0.4125    1.9333    0.0000 C   0  0  0  0  0  0  0  0  0  0  0  0
   -0.8333    2.6708    0.0000 C   0  0  0  0  0  0  0  0  0  0  0  0
    0.4667    1.9333    0.0000 C   0  0  0  0  0  0  0  0  0  0  0  0
   -0.8333    1.1708    0.0000 C   0  0  0  0  0  0  0  0  0  0  0  0
   -1.6958    2.6500    0.0000 C   0  0  0  0  0  0  0  0  0  0  0  0
    0.8875    2.6708    0.0000 O   0  0  0  0  0  0  0  0  0  0  0  0
   -2.1333    1.9125    0.0000 C   0  0  0  0  0  0  0  0  0  0  0  0
    0.8875    1.1708    0.0000 O   0  0  0  0  0  0  0  0  0  0  0  0
   -0.3958    3.4208    0.0000 O   0  0  0  0  0  0  0  0  0  0  0  0
   -1.6708    1.1708    0.0000 C   0  0  0  0  0  0  0  0  0  0  0  0
    3.0000    0.4125    0.0000 N   0  0  0  0  0  0  0  0  0  0  0  0
    1.7292    1.1708    0.0000 C   0  0  0  0  0  0  0  0  0  0  0  0
   -2.9958    1.9125    0.0000 O   0  0  0  0  0  0  0  0  0  0  0  0
    2.1500    0.4125    0.0000 C   0  0  0  0  0  0  0  0  0  0  0  0
    3.4292    1.1458    0.0000 C   0  0  0  0  0  0  0  0  0  0  0  0
    3.4167   -0.3292    0.0000 C   0  0  0  0  0  0  0  0  0  0  0  0
   -3.4125    1.1708    0.0000 C   0  0  0  0  0  0  0  0  0  0  0  0
   -4.2708    1.1708    0.0000 C   0  0  0  0  0  0  0  0  0  0  0  0
    2.9875   -1.0542    0.0000 C   0  0  0  0  0  0  0  0  0  0  0  0
    3.0042    1.8958    0.0000 C   0  0  0  0  0  0  0  0  0  0  0  0
   -4.6958    0.4333    0.0000 C   0  0  0  0  0  0  0  0  0  0  0  0
  2  1  2  0  0  0  0
  3  1  1  0  0  0  0
  4  1  1  0  0  0  0
  5  2  1  0  0  0  0
  6  3  2  0  0  0  0
  7 10  1  0  0  0  0
  7  5  2  0  0  0  0
  8  3  1  0  0  0  0
  9  2  1  0  0  0  0
 10  4  2  0  0  0  0
 11 14  1  0  0  0  0
 12  8  1  0  0  0  0
 13  7  1  0  0  0  0
 14 12  1  0  0  0  0
 15 11  1  0  0  0  0
 16 11  1  0  0  0  0
 17 13  1  0  0  0  0
 18 17  1  0  0  0  0
 19 16  1  0  0  0  0
 20 15  1  0  0  0  0
 21 18  1  0  0  0  0
M  END
>  <ID>
5553567

>  <Supplier>
ChemBridge

>  <clogP>
1.000000000000000e+000

>  <RB>
5

>  <tPSA>
5.900000000000000e+001

>  <Hacc>
5

>  <Hdon>
1

>  <LogSw>
-6.200000000000000e-001

>  <Group>
3

$$$$
5553565
 OpenBabel03312015312D

 23 23  0  0  0  0  0  0  0  0999 V2000
    1.9792    1.2500    0.0000 C   0  0  0  0  0  0  0  0  0  0  0  0
    1.4542    0.9500    0.0000 C   0  0  0  0  0  0  0  0  0  0  0  0
    2.5042    0.9500    0.0000 C   0  0  0  0  0  0  0  0  0  0  0  0
    0.9375    1.2500    0.0000 C   0  0  3  0  0  0  0  0  0  0  0  0
    0.4167    0.9500    0.0000 N   0  0  0  0  0  0  0  0  0  0  0  0
    0.9375    1.8500    0.0000 N   0  0  0  0  0  0  0  0  0  0  0  0
    3.0167    1.2500    0.0000 C   0  0  0  0  0  0  0  0  0  0  0  0
   -0.0958    1.2500    0.0000 C   0  0  0  0  0  0  0  0  0  0  0  0
    1.9792    0.6500    0.0000 F   0  0  0  0  0  0  0  0  0  0  0  0
    1.9792    1.8500    0.0000 F   0  0  0  0  0  0  0  0  0  0  0  0
    1.4542    1.5458    0.0000 F   0  0  0  0  0  0  0  0  0  0  0  0
    1.4542    0.3500    0.0000 F   0  0  0  0  0  0  0  0  0  0  0  0
    2.5167    0.3625    0.0000 F   0  0  0  0  0  0  0  0  0  0  0  0
    2.5042    1.5333    0.0000 F   0  0  0  0  0  0  0  0  0  0  0  0
   -0.0958    1.8500    0.0000 O   0  0  0  0  0  0  0  0  0  0  0  0
    3.0042    1.8458    0.0000 F   0  0  0  0  0  0  0  0  0  0  0  0
    3.0375    0.6708    0.0000 F   0  0  0  0  0  0  0  0  0  0  0  0
    0.4167    2.1458    0.0000 C   0  0  0  0  0  0  0  0  0  0  0  0
    1.4542    2.1500    0.0000 C   0  0  0  0  0  0  0  0  0  0  0  0
   -0.6125    0.9500    0.0000 C   0  0  0  0  0  0  0  0  0  0  0  0
    1.4542    2.7500    0.0000 C   0  0  0  0  0  0  0  0  0  0  0  0
    0.4042    2.7500    0.0000 C   0  0  0  0  0  0  0  0  0  0  0  0
    0.9292    3.0500    0.0000 C   0  0  0  0  0  0  0  0  0  0  0  0
  2  1  1  0  0  0  0
  3  1  1  0  0  0  0
  4  2  1  0  0  0  0
  5  4  1  0  0  0  0
  6  4  1  0  0  0  0
  7  3  1  0  0  0  0
  8  5  1  0  0  0  0
  9  1  1  0  0  0  0
 10  1  1  0  0  0  0
 11  2  1  0  0  0  0
 12  2  1  0  0  0  0
 13  3  1  0  0  0  0
 14  3  1  0  0  0  0
 15  8  2  0  0  0  0
 16  7  1  0  0  0  0
 17  7  1  0  0  0  0
 18  6  1  0  0  0  0
 19  6  1  0  0  0  0
 20  8  1  0  0  0  0
 21 19  1  0  0  0  0
 22 18  1  0  0  0  0
 22 23  1  0  0  0  0
 23 21  1  0  0  0  0
M  END
>  <ID>
5553565

>  <Supplier>
ChemBridge

>  <clogP>
2.000000000000000e+000

>  <RB>
5

>  <tPSA>
3.234000000000000e+001

>  <Hacc>
2

>  <Hdon>
1

>  <LogSw>
-3.506000000000000e+000

>  <Group>
1

$$$$
5260464
 OpenBabel03312015312D

 16 17  0  0  0  0  0  0  0  0999 V2000
   -0.6833    1.0500    0.0000 C   0  0  0  0  0  0  0  0  0  0  0  0
   -0.7000   -0.0667    0.0000 N   0  0  0  0  0  0  0  0  0  0  0  0
   -1.6333    1.6208    0.0000 C   0  0  0  0  0  0  0  0  0  0  0  0
   -1.6625   -2.8875    0.0000 N   0  0  0  0  0  0  0  0  0  0  0  0
    0.2542   -0.6500    0.0000 C   0  0  0  0  0  0  0  0  0  0  0  0
   -0.7000   -2.3292    0.0000 C   0  0  0  0  0  0  0  0  0  0  0  0
    0.2542   -1.7667    0.0000 C   0  0  0  0  0  0  0  0  0  0  0  0
   -1.7500    2.7458    0.0000 O   0  0  0  0  0  0  0  0  0  0  0  0
    0.2792    1.6125    0.0000 O   0  0  0  0  0  0  0  0  0  0  0  0
   -2.6500    1.1958    0.0000 C   0  0  0  0  0  0  0  0  0  0  0  0
   -2.8625    2.9833    0.0000 C   0  0  0  0  0  0  0  0  0  0  0  0
   -3.4208    2.0333    0.0000 C   0  0  0  0  0  0  0  0  0  0  0  0
    1.2167   -2.3292    0.0000 C   0  0  0  0  0  0  0  0  0  0  0  0
    1.2167   -0.1042    0.0000 C   0  0  0  0  0  0  0  0  0  0  0  0
    2.1792   -1.7667    0.0000 C   0  0  0  0  0  0  0  0  0  0  0  0
    2.1792   -0.6500    0.0000 C   0  0  0  0  0  0  0  0  0  0  0  0
  2  1  1  0  0  0  0
  3  1  1  0  0  0  0
  4  6  3  0  0  0  0
  5  2  1  0  0  0  0
  6  7  1  0  0  0  0
  7  5  2  0  0  0  0
  8  3  1  0  0  0  0
  9  1  2  0  0  0  0
 10  3  2  0  0  0  0
 11  8  1  0  0  0  0
 12 10  1  0  0  0  0
 12 11  2  0  0  0  0
 13  7  1  0  0  0  0
 13 15  2  0  0  0  0
 14  5  1  0  0  0  0
 15 16  1  0  0  0  0
 16 14  2  0  0  0  0
M  END
>  <ID>
5260464

>  <Supplier>
ChemBridge

>  <clogP>
1.150000000000000e+000

>  <RB>
2

>  <tPSA>
6.603000000000000e+001

>  <Hacc>
3

>  <Hdon>
1

>  <LogSw>
-1.996000000000000e+000

>  <Group>
3

>  <Core>
511

$$$$
7156496
 OpenBabel03312015312D

 26 28  0  0  0  0  0  0  0  0999 V2000
    0.7167    0.1125    0.0000 C   0  0  0  0  0  0  0  0  0  0  0  0
   -0.4458    0.1125    0.0000 C   0  0  0  0  0  0  0  0  0  0  0  0
    0.1375    0.4458    0.0000 C   0  0  3  0  0  0  0  0  0  0  0  0
   -0.4458   -0.5500    0.0000 C   0  0  0  0  0  0  0  0  0  0  0  0
    0.7167   -0.5500    0.0000 C   0  0  0  0  0  0  0  0  0  0  0  0
    0.1375   -0.8792    0.0000 N   0  0  0  0  0  0  0  0  0  0  0  0
   -1.0208    0.4458    0.0000 C   0  0  0  0  0  0  0  0  0  0  0  0
    0.1375    1.1000    0.0000 C   0  0  0  0  0  0  0  0  0  0  0  0
    1.2500    0.4125    0.0000 C   0  0  0  0  0  0  0  0  0  0  0  0
   -1.0208   -0.8792    0.0000 C   0  0  0  0  0  0  0  0  0  0  0  0
   -1.6000   -0.5500    0.0000 C   0  0  0  0  0  0  0  0  0  0  0  0
   -1.6000    0.1125    0.0000 C   0  0  0  0  0  0  0  0  0  0  0  0
    0.7042    1.4208    0.0000 C   0  0  0  0  0  0  0  0  0  0  0  0
   -0.4333    1.4333    0.0000 C   0  0  0  0  0  0  0  0  0  0  0  0
   -1.0208    0.8625    0.0000 O   0  0  0  0  0  0  0  0  0  0  0  0
    1.7667    0.1000    0.0000 O   0  0  0  0  0  0  0  0  0  0  0  0
    1.2542    1.0333    0.0000 O   0  0  0  0  0  0  0  0  0  0  0  0
    1.2167   -0.7542    0.0000 C   0  0  0  0  0  0  0  0  0  0  0  0
   -0.7333    1.2708    0.0000 F   0  0  0  0  0  0  0  0  0  0  0  0
    1.0542    1.2500    0.0000 F   0  0  0  0  0  0  0  0  0  0  0  0
   -1.8000   -1.0667    0.0000 C   0  0  0  0  0  0  0  0  0  0  0  0
   -2.0708   -0.5042    0.0000 C   0  0  0  0  0  0  0  0  0  0  0  0
    0.1542    2.4333    0.0000 C   0  0  0  0  0  0  0  0  0  0  0  0
   -0.4208    2.1000    0.0000 C   0  0  0  0  0  0  0  0  0  0  0  0
    0.7167    2.0958    0.0000 C   0  0  0  0  0  0  0  0  0  0  0  0
    1.7542    1.2708    0.0000 C   0  0  0  0  0  0  0  0  0  0  0  0
  2  3  1  0  0  0  0
  3  1  1  0  0  0  0
  4  6  1  0  0  0  0
  4  2  2  0  0  0  0
  5  1  2  0  0  0  0
  6  5  1  0  0  0  0
  7  2  1  0  0  0  0
  8  3  1  0  0  0  0
  9  1  1  0  0  0  0
 10  4  1  0  0  0  0
 11 10  1  0  0  0  0
 11 12  1  0  0  0  0
 12  7  1  0  0  0  0
 13  8  1  0  0  0  0
 14  8  2  0  0  0  0
 15  7  2  0  0  0  0
 16  9  2  0  0  0  0
 17  9  1  0  0  0  0
 18  5  1  0  0  0  0
 19 14  1  0  0  0  0
 20 13  1  0  0  0  0
 21 11  1  0  0  0  0
 22 11  1  0  0  0  0
 23 24  2  0  0  0  0
 23 25  1  0  0  0  0
 24 14  1  0  0  0  0
 25 13  2  0  0  0  0
 26 17  1  0  0  0  0
M  END
>  <ID>
7156496

>  <Supplier>
ChemBridge

>  <clogP>
3.860000000000000e+000

>  <RB>
2

>  <tPSA>
5.540000000000000e+001

>  <Hacc>
3

>  <Hdon>
1

>  <LogSw>
-4.122999999999998e+000

>  <Group>
2

>  <Core>
085

$$$$
5260463
 OpenBabel03312015312D

 25 27  0  0  0  0  0  0  0  0999 V2000
    1.4375    3.2833    0.0000 C   0  0  0  0  0  0  0  0  0  0  0  0
   -3.2625    2.8958    0.0000 N   0  0  0  0  0  0  0  0  0  0  0  0
   -3.9333    3.2708    0.0000 C   0  0  0  0  0  0  0  0  0  0  0  0
   -1.9333    2.1125    0.0000 N   0  0  0  0  0  0  0  0  0  0  0  0
    0.7667    2.8958    0.0000 C   0  0  0  0  0  0  0  0  0  0  0  0
   -3.2625    2.1125    0.0000 C   0  0  0  0  0  0  0  0  0  0  0  0
   -2.5958    3.2708    0.0000 C   0  0  0  0  0  0  0  0  0  0  0  0
   -3.9333    4.0417    0.0000 C   0  0  0  0  0  0  0  0  0  0  0  0
    2.0875    3.6708    0.0000 F   0  0  0  0  0  0  0  0  0  0  0  0
    1.0375    3.9625    0.0000 F   0  0  0  0  0  0  0  0  0  0  0  0
    1.8167    2.6000    0.0000 F   0  0  0  0  0  0  0  0  0  0  0  0
   -1.2625    1.7208    0.0000 C   0  0  0  0  0  0  0  0  0  0  0  0
    0.1000    3.2833    0.0000 C   0  0  0  0  0  0  0  0  0  0  0  0
    0.7667    2.1125    0.0000 C   0  0  0  0  0  0  0  0  0  0  0  0
   -1.9333    2.8958    0.0000 C   0  0  0  0  0  0  0  0  0  0  0  0
   -2.5958    1.7208    0.0000 C   0  0  0  0  0  0  0  0  0  0  0  0
   -0.5958    2.1125    0.0000 C   0  0  0  0  0  0  0  0  0  0  0  0
    0.1000    1.7208    0.0000 C   0  0  0  0  0  0  0  0  0  0  0  0
   -0.5958    2.8958    0.0000 C   0  0  0  0  0  0  0  0  0  0  0  0
   -3.2458    4.4375    0.0000 O   0  0  0  0  0  0  0  0  0  0  0  0
   -4.5958    2.8958    0.0000 C   0  0  0  0  0  0  0  0  0  0  0  0
   -4.5958    4.4292    0.0000 C   0  0  0  0  0  0  0  0  0  0  0  0
   -3.2458    5.2292    0.0000 C   0  0  0  0  0  0  0  0  0  0  0  0
   -5.2708    3.2708    0.0000 C   0  0  0  0  0  0  0  0  0  0  0  0
   -5.2708    4.0417    0.0000 C   0  0  0  0  0  0  0  0  0  0  0  0
  2  6  1  0  0  0  0
  3  2  1  0  0  0  0
  4 12  1  0  0  0  0
  5  1  1  0  0  0  0
  6 16  1  0  0  0  0
  7 15  1  0  0  0  0
  7  2  1  0  0  0  0
  8  3  2  0  0  0  0
  9  1  1  0  0  0  0
 10  1  1  0  0  0  0
 11  1  1  0  0  0  0
 12 17  1  0  0  0  0
 13  5  2  0  0  0  0
 14  5  1  0  0  0  0
 15  4  1  0  0  0  0
 16  4  1  0  0  0  0
 17 18  1  0  0  0  0
 17 19  2  0  0  0  0
 18 14  2  0  0  0  0
 19 13  1  0  0  0  0
 20  8  1  0  0  0  0
 21  3  1  0  0  0  0
 22  8  1  0  0  0  0
 23 20  1  0  0  0  0
 24 21  2  0  0  0  0
 25 24  1  0  0  0  0
 25 22  2  0  0  0  0
M  END
>  <ID>
5260463

>  <Supplier>
ChemBridge

>  <clogP>
4.220000000000000e+000

>  <RB>
3

>  <tPSA>
1.571000000000000e+001

>  <Hacc>
2

>  <Hdon>
0

>  <LogSw>
-4.351000000000000e+000

>  <Group>
1

>  <Core>
162

$$$$
7270501
 OpenBabel03312015312D

 20 21  0  0  0  0  0  0  0  0999 V2000
   -2.5708    5.4792    0.0000 C   0  0  0  0  0  0  0  0  0  0  0  0
   -1.0333    2.8458    0.0000 C   0  0  0  0  0  0  0  0  0  0  0  0
   -5.6333    5.4792    0.0000 N   0  0  0  0  0  0  0  0  0  0  0  0
   -7.1667    8.1167    0.0000 C   0  0  0  0  0  0  0  0  0  0  0  0
  -10.1542    8.1167    0.0000 C   0  0  0  0  0  0  0  0  0  0  0  0
  -11.6875   10.7292    0.0000 C   0  0  0  0  0  0  0  0  0  0  0  0
   -1.0333    8.1292    0.0000 O   0  0  0  0  0  0  0  0  0  0  0  0
    1.9500    2.8833    0.0000 C   0  0  0  0  0  0  0  0  0  0  0  0
   -5.6000   10.7542    0.0000 C   0  0  0  0  0  0  0  0  0  0  0  0
  -10.1542   13.3292    0.0000 C   0  0  0  0  0  0  0  0  0  0  0  0
  -11.7167    5.4542    0.0000 F   0  0  0  0  0  0  0  0  0  0  0  0
   -7.1375   13.3875    0.0000 C   0  0  0  0  0  0  0  0  0  0  0  0
  -11.7500   16.0000    0.0000 Br  0  0  0  0  0  0  0  0  0  0  0  0
   -2.4958    0.4208    0.0000 C   0  0  0  0  0  0  0  0  0  0  0  0
    3.4875    5.3292    0.0000 O   0  0  0  0  0  0  0  0  0  0  0  0
    3.3375    0.3833    0.0000 C   0  0  0  0  0  0  0  0  0  0  0  0
    6.4500    5.2167    0.0000 C   0  0  0  0  0  0  0  0  0  0  0  0
   -0.9625   -2.1792    0.0000 C   0  0  0  0  0  0  0  0  0  0  0  0
    8.0167    7.6375    0.0000 C   0  0  0  0  0  0  0  0  0  0  0  0
    1.8000   -2.1500    0.0000 C   0  0  0  0  0  0  0  0  0  0  0  0
  2  1  1  0  0  0  0
  3  1  1  0  0  0  0
  4  3  1  0  0  0  0
  5  4  1  0  0  0  0
  6  5  2  0  0  0  0
  7  1  2  0  0  0  0
  8  2  1  0  0  0  0
  9  4  2  0  0  0  0
 10 12  2  0  0  0  0
 10  6  1  0  0  0  0
 11  5  1  0  0  0  0
 12  9  1  0  0  0  0
 13 10  1  0  0  0  0
 14  2  2  0  0  0  0
 15  8  1  0  0  0  0
 16  8  2  0  0  0  0
 17 15  1  0  0  0  0
 18 14  1  0  0  0  0
 19 17  1  0  0  0  0
 20 18  2  0  0  0  0
 20 16  1  0  0  0  0
M  END
>  <ID>
7270501

>  <Supplier>
ChemBridge

>  <clogP>
3.950000000000000e+000

>  <RB>
2

>  <tPSA>
3.833000000000000e+001

>  <Hacc>
2

>  <Hdon>
1

>  <LogSw>
-5.039000000000002e+000

>  <Group>
2

>  <Core>
511

$$$$
7581230
 OpenBabel03312015312D

 28 30  0  0  0  0  0  0  0  0999 V2000
    4.7667   -3.2750    0.0000 S   0  0  0  0  0  0  0  0  0  0  0  0
    7.6125   -4.1500    0.0000 N   0  0  0  0  0  0  0  0  0  0  0  0
    6.8917   -3.7292    0.0000 C   0  0  0  0  0  0  0  0  0  0  0  0
    5.4625   -3.7292    0.0000 N   0  0  0  0  0  0  0  0  0  0  0  0
    9.0500   -4.9917    0.0000 N   0  0  0  0  0  0  0  0  0  0  0  0
    6.1750   -4.1417    0.0000 C   0  0  0  0  0  0  0  0  0  0  0  0
    4.0667   -2.8250    0.0000 C   0  0  0  0  0  0  0  0  0  0  0  0
    5.2167   -2.5750    0.0000 O   0  0  0  0  0  0  0  0  0  0  0  0
    4.3125   -3.9667    0.0000 O   0  0  0  0  0  0  0  0  0  0  0  0
    9.7625   -5.4125    0.0000 C   0  0  0  0  0  0  0  0  0  0  0  0
    8.3417   -3.7375    0.0000 C   0  0  0  0  0  0  0  0  0  0  0  0
    7.6042   -4.9875    0.0000 C   0  0  0  0  0  0  0  0  0  0  0  0
    9.0625   -4.1625    0.0000 C   0  0  0  0  0  0  0  0  0  0  0  0
    8.3250   -5.4125    0.0000 C   0  0  0  0  0  0  0  0  0  0  0  0
    6.9000   -2.9042    0.0000 O   0  0  0  0  0  0  0  0  0  0  0  0
    3.3375   -3.2042    0.0000 C   0  0  0  0  0  0  0  0  0  0  0  0
    4.1042   -1.9917    0.0000 C   0  0  0  0  0  0  0  0  0  0  0  0
    9.7542   -6.2417    0.0000 C   0  0  0  0  0  0  0  0  0  0  0  0
   10.4750   -5.0000    0.0000 C   0  0  0  0  0  0  0  0  0  0  0  0
   11.1875   -6.2500    0.0000 C   0  0  0  0  0  0  0  0  0  0  0  0
   11.1875   -5.4167    0.0000 C   0  0  0  0  0  0  0  0  0  0  0  0
   10.4542   -6.6542    0.0000 C   0  0  0  0  0  0  0  0  0  0  0  0
    2.6375   -2.7625    0.0000 C   0  0  0  0  0  0  0  0  0  0  0  0
    3.4042   -1.5500    0.0000 C   0  0  0  0  0  0  0  0  0  0  0  0
    2.6750   -1.9292    0.0000 C   0  0  0  0  0  0  0  0  0  0  0  0
   11.9000   -6.6750    0.0000 O   0  0  0  0  0  0  0  0  0  0  0  0
    1.9792   -1.4875    0.0000 C   0  0  0  0  0  0  0  0  0  0  0  0
   12.6125   -6.2625    0.0000 C   0  0  0  0  0  0  0  0  0  0  0  0
  2  3  1  0  0  0  0
  3  6  1  0  0  0  0
  4  1  1  0  0  0  0
  5 14  1  0  0  0  0
  6  4  1  0  0  0  0
  7  1  1  0  0  0  0
  8  1  2  0  0  0  0
  9  1  2  0  0  0  0
 10  5  1  0  0  0  0
 11  2  1  0  0  0  0
 12  2  1  0  0  0  0
 13 11  1  0  0  0  0
 13  5  1  0  0  0  0
 14 12  1  0  0  0  0
 15  3  2  0  0  0  0
 16  7  1  0  0  0  0
 17  7  2  0  0  0  0
 18 10  2  0  0  0  0
 19 10  1  0  0  0  0
 20 21  1  0  0  0  0
 21 19  2  0  0  0  0
 22 18  1  0  0  0  0
 22 20  2  0  0  0  0
 23 16  2  0  0  0  0
 23 25  1  0  0  0  0
 24 17  1  0  0  0  0
 25 24  2  0  0  0  0
 26 20  1  0  0  0  0
 27 25  1  0  0  0  0
 28 26  1  0  0  0  0
M  END
>  <ID>
7581230

>  <Supplier>
ChemBridge

>  <clogP>
2.059000000000000e+000

>  <RB>
4

>  <tPSA>
7.894999999999997e+001

>  <Hacc>
5

>  <Hdon>
1

>  <LogSw>
-3.733000000000000e+000

>  <Group>
3

>  <Core>
158

$$$$
5356684
 OpenBabel03312015312D

 25 27  0  0  0  0  0  0  0  0999 V2000
   -0.0125   -8.1167    0.0000 N   0  3  0  0  0  0  0  0  0  0  0  0
    0.3542   -8.7792    0.0000 C   0  0  0  0  0  0  0  0  0  0  0  0
    2.2292   -9.4292    0.0000 C   0  0  0  0  0  0  0  0  0  0  0  0
    2.6042  -10.0792    0.0000 N   0  0  0  0  0  0  0  0  0  0  0  0
    1.1042   -8.7792    0.0000 C   0  0  0  0  0  0  0  0  0  0  0  0
    1.4792   -9.4292    0.0000 C   0  0  0  0  0  0  0  0  0  0  0  0
    3.3542  -11.3792    0.0000 N   0  0  0  0  0  0  0  0  0  0  0  0
   -0.0125   -9.4292    0.0000 C   0  0  0  0  0  0  0  0  0  0  0  0
    0.3542   -7.4792    0.0000 O   0  5  0  0  0  0  0  0  0  0  0  0
   -0.7625   -8.1167    0.0000 O   0  0  0  0  0  0  0  0  0  0  0  0
    2.6042   -8.7792    0.0000 O   0  0  0  0  0  0  0  0  0  0  0  0
    3.3542  -10.0792    0.0000 C   0  0  0  0  0  0  0  0  0  0  0  0
    2.2292  -10.7292    0.0000 C   0  0  0  0  0  0  0  0  0  0  0  0
    1.1042  -10.0667    0.0000 C   0  0  0  0  0  0  0  0  0  0  0  0
    0.3542  -10.0667    0.0000 C   0  0  0  0  0  0  0  0  0  0  0  0
    3.7292  -12.0292    0.0000 C   0  0  0  0  0  0  0  0  0  0  0  0
    3.7292  -10.7292    0.0000 C   0  0  0  0  0  0  0  0  0  0  0  0
    2.6042  -11.3792    0.0000 C   0  0  0  0  0  0  0  0  0  0  0  0
   -0.7625   -9.4292    0.0000 Cl  0  0  0  0  0  0  0  0  0  0  0  0
    4.4792  -12.0167    0.0000 C   0  0  0  0  0  0  0  0  0  0  0  0
    4.8500  -11.3792    0.0000 C   0  0  0  0  0  0  0  0  0  0  0  0
    4.8542  -12.6667    0.0000 C   0  0  0  0  0  0  0  0  0  0  0  0
    5.6000  -11.3667    0.0000 C   0  0  0  0  0  0  0  0  0  0  0  0
    5.6042  -12.6667    0.0000 C   0  0  0  0  0  0  0  0  0  0  0  0
    5.9792  -12.0167    0.0000 C   0  0  0  0  0  0  0  0  0  0  0  0
  2  1  1  0  0  0  0
  3  6  1  0  0  0  0
  4  3  1  0  0  0  0
  5  2  1  0  0  0  0
  6  5  2  0  0  0  0
  7 18  1  0  0  0  0
  8  2  2  0  0  0  0
  9  1  1  0  0  0  0
 10  1  2  0  0  0  0
 11  3  2  0  0  0  0
 12  4  1  0  0  0  0
 13  4  1  0  0  0  0
 14 15  2  0  0  0  0
 14  6  1  0  0  0  0
 15  8  1  0  0  0  0
 16  7  1  0  0  0  0
 17 12  1  0  0  0  0
 17  7  1  0  0  0  0
 18 13  1  0  0  0  0
 19  8  1  0  0  0  0
 20 16  1  0  0  0  0
 21 20  1  0  0  0  0
 22 20  2  0  0  0  0
 23 21  2  0  0  0  0
 24 22  1  0  0  0  0
 25 24  2  0  0  0  0
 25 23  1  0  0  0  0
M  CHG  2   1   1   9  -1
M  END
>  <ID>
5356684

>  <Supplier>
ChemBridge

>  <clogP>
3.490000000000000e+000

>  <RB>
3

>  <tPSA>
6.669000000000000e+001

>  <Hacc>
4

>  <Hdon>
0

>  <LogSw>
-5.193999999999998e+000

>  <Group>
3

>  <Core>
165

$$$$
7964613
 OpenBabel03312015312D

 24 26  0  0  0  0  0  0  0  0999 V2000
    6.2875    1.5708    0.0000 C   0  0  0  0  0  0  0  0  0  0  0  0
    6.9375    1.9458    0.0000 C   0  0  0  0  0  0  0  0  0  0  0  0
    5.6417    1.9458    0.0000 C   0  0  0  0  0  0  0  0  0  0  0  0
    7.5875    1.5708    0.0000 N   0  0  0  0  0  0  0  0  0  0  0  0
    4.9917    1.5708    0.0000 C   0  0  0  0  0  0  0  0  0  0  0  0
    6.2875    0.8208    0.0000 C   0  0  0  0  0  0  0  0  0  0  0  0
    9.5375    1.9458    0.0000 C   0  0  0  0  0  0  0  0  0  0  0  0
    6.9375    2.6958    0.0000 O   0  0  0  0  0  0  0  0  0  0  0  0
    8.2375    1.9458    0.0000 C   0  0  0  0  0  0  0  0  0  0  0  0
    8.8875    1.5708    0.0000 C   0  0  0  0  0  0  0  0  0  0  0  0
    4.9917    0.8208    0.0000 C   0  0  0  0  0  0  0  0  0  0  0  0
    5.6417    0.4458    0.0000 C   0  0  0  0  0  0  0  0  0  0  0  0
    5.6417    2.6958    0.0000 O   0  0  0  0  0  0  0  0  0  0  0  0
   10.1875    1.5708    0.0000 C   0  0  3  0  0  0  0  0  0  0  0  0
   10.8292    1.9458    0.0000 O   0  0  0  0  0  0  0  0  0  0  0  0
    4.3417    1.9458    0.0000 C   0  0  0  0  0  0  0  0  0  0  0  0
    9.5375    2.6958    0.0000 C   0  0  0  0  0  0  0  0  0  0  0  0
    8.8875    3.0708    0.0000 C   0  0  0  0  0  0  0  0  0  0  0  0
    8.2375    2.6958    0.0000 C   0  0  0  0  0  0  0  0  0  0  0  0
    4.3417    0.4458    0.0000 C   0  0  0  0  0  0  0  0  0  0  0  0
   10.1875    0.8208    0.0000 C   0  0  0  0  0  0  0  0  0  0  0  0
    4.9917    3.0708    0.0000 C   0  0  0  0  0  0  0  0  0  0  0  0
    3.6917    1.5708    0.0000 C   0  0  0  0  0  0  0  0  0  0  0  0
    3.6917    0.8208    0.0000 C   0  0  0  0  0  0  0  0  0  0  0  0
  2  1  1  0  0  0  0
  3  1  2  0  0  0  0
  4  2  1  0  0  0  0
  5  3  1  0  0  0  0
  6  1  1  0  0  0  0
  7 10  2  0  0  0  0
  7 17  1  0  0  0  0
  8  2  2  0  0  0  0
  9  4  1  0  0  0  0
 10  9  1  0  0  0  0
 11 12  1  0  0  0  0
 11  5  2  0  0  0  0
 12  6  2  0  0  0  0
 13  3  1  0  0  0  0
 14  7  1  0  0  0  0
 15 14  1  0  0  0  0
 16  5  1  0  0  0  0
 17 18  2  0  0  0  0
 18 19  1  0  0  0  0
 19  9  2  0  0  0  0
 20 11  1  0  0  0  0
 21 14  1  0  0  0  0
 22 13  1  0  0  0  0
 23 16  2  0  0  0  0
 24 20  2  0  0  0  0
 24 23  1  0  0  0  0
M  END
>  <ID>
7964613

>  <Supplier>
ChemBridge

>  <clogP>
3.226000000000000e+000

>  <RB>
3

>  <tPSA>
5.856000000000000e+001

>  <Hacc>
3

>  <Hdon>
2

>  <LogSw>
-4.299000000000000e+000

>  <Group>
3

>  <Core>
511

$$$$
9077064
 OpenBabel03312015312D

 27 29  0  0  0  0  0  0  0  0999 V2000
    7.0625    2.0833    0.0000 N   0  0  0  0  0  0  0  0  0  0  0  0
    7.5042    2.6833    0.0000 C   0  0  0  0  0  0  0  0  0  0  0  0
    7.0625    3.2958    0.0000 N   0  0  0  0  0  0  0  0  0  0  0  0
    6.3500    2.3083    0.0000 C   0  0  0  0  0  0  0  0  0  0  0  0
    3.1625    1.5958    0.0000 C   0  0  0  0  0  0  0  0  0  0  0  0
    6.3500    3.0583    0.0000 N   0  0  0  0  0  0  0  0  0  0  0  0
    2.4417    1.8250    0.0000 S   0  0  0  0  0  0  0  0  0  0  0  0
    3.1625    0.8458    0.0000 N   0  0  0  0  0  0  0  0  0  0  0  0
    2.4417    0.6125    0.0000 N   0  0  0  0  0  0  0  0  0  0  0  0
    3.7667    2.0333    0.0000 N   0  0  0  0  0  0  0  0  0  0  0  0
    2.0042    1.2208    0.0000 C   0  0  0  0  0  0  0  0  0  0  0  0
    8.2542    2.6833    0.0000 C   0  0  0  0  0  0  0  0  0  0  0  0
    5.7417    1.8708    0.0000 S   0  0  0  0  0  0  0  0  0  0  0  0
    7.2917    1.3625    0.0000 C   0  0  0  0  0  0  0  0  0  0  0  0
    4.4542    1.7333    0.0000 C   0  0  0  0  0  0  0  0  0  0  0  0
    9.3792    2.0333    0.0000 N   0  0  0  0  0  0  0  0  0  0  0  0
    4.5292    0.9833    0.0000 O   0  0  0  0  0  0  0  0  0  0  0  0
    5.0542    2.1708    0.0000 C   0  0  0  0  0  0  0  0  0  0  0  0
    8.6292    2.0333    0.0000 C   0  0  0  0  0  0  0  0  0  0  0  0
    8.6292    3.3333    0.0000 C   0  0  0  0  0  0  0  0  0  0  0  0
    1.2542    1.2208    0.0000 C   0  0  0  0  0  0  0  0  0  0  0  0
    6.7917    0.8083    0.0000 C   0  0  0  0  0  0  0  0  0  0  0  0
    9.7542    2.6833    0.0000 C   0  0  0  0  0  0  0  0  0  0  0  0
    9.3792    3.3333    0.0000 C   0  0  0  0  0  0  0  0  0  0  0  0
    7.0250    0.0958    0.0000 C   0  0  0  0  0  0  0  0  0  0  0  0
    6.0625    0.9583    0.0000 C   0  0  0  0  0  0  0  0  0  0  0  0
    0.8792    0.5708    0.0000 C   0  0  0  0  0  0  0  0  0  0  0  0
  2  1  1  0  0  0  0
  3  2  2  0  0  0  0
  3  6  1  0  0  0  0
  4  1  1  0  0  0  0
  5 10  1  0  0  0  0
  6  4  2  0  0  0  0
  7  5  1  0  0  0  0
  8  5  2  0  0  0  0
  9  8  1  0  0  0  0
 10 15  1  0  0  0  0
 11  7  1  0  0  0  0
 11  9  2  0  0  0  0
 12  2  1  0  0  0  0
 13  4  1  0  0  0  0
 14  1  1  0  0  0  0
 15 18  1  0  0  0  0
 16 19  1  0  0  0  0
 17 15  2  0  0  0  0
 18 13  1  0  0  0  0
 19 12  2  0  0  0  0
 20 12  1  0  0  0  0
 21 11  1  0  0  0  0
 22 14  1  0  0  0  0
 23 24  1  0  0  0  0
 23 16  2  0  0  0  0
 24 20  2  0  0  0  0
 25 22  1  0  0  0  0
 26 22  1  0  0  0  0
 27 21  1  0  0  0  0
M  END
>  <ID>
9077064

>  <Supplier>
ChemBridge

>  <clogP>
1.693000000000000e+000

>  <RB>
6

>  <tPSA>
9.848000000000000e+001

>  <Hacc>
6

>  <Hdon>
1

>  <LogSw>
-3.587000000000000e+000

>  <Group>
2

>  <Core>
551

$$$$
5760059
 OpenBabel03312015312D

 34 38  0  0  0  0  0  0  0  0999 V2000
    0.6375    0.8458    0.0000 N   0  0  0  0  0  0  0  0  0  0  0  0
    0.3167    0.3000    0.0000 C   0  0  0  0  0  0  0  0  0  0  0  0
    1.2000    0.7333    0.0000 C   0  0  0  0  0  0  0  0  0  0  0  0
    0.7500   -0.0875    0.0000 C   0  0  3  0  0  0  0  0  0  0  0  0
   -0.0125   -0.8042    0.0000 C   0  0  0  0  0  0  0  0  0  0  0  0
    1.2667    0.1458    0.0000 C   0  0  0  0  0  0  0  0  0  0  0  0
    0.5542   -0.6500    0.0000 N   0  0  0  0  0  0  0  0  0  0  0  0
   -0.4125   -0.3667    0.0000 N   0  0  0  0  0  0  0  0  0  0  0  0
    0.4375    1.4000    0.0000 C   0  0  0  0  0  0  0  0  0  0  0  0
    2.3167   -0.2375    0.0000 C   0  0  0  0  0  0  0  0  0  0  0  0
   -0.1958   -1.3667    0.0000 S   0  0  0  0  0  0  0  0  0  0  0  0
   -0.2625    0.2208    0.0000 O   0  0  0  0  0  0  0  0  0  0  0  0
    0.9667   -1.0875    0.0000 C   0  0  0  0  0  0  0  0  0  0  0  0
    1.6167    1.1833    0.0000 O   0  0  0  0  0  0  0  0  0  0  0  0
    2.7500   -0.6667    0.0000 C   0  0  0  0  0  0  0  0  0  0  0  0
    2.6042    0.2958    0.0000 O   0  0  0  0  0  0  0  0  0  0  0  0
    3.3000   -0.4000    0.0000 O   0  0  0  0  0  0  0  0  0  0  0  0
    3.2042    0.1500    0.0000 C   0  0  0  0  0  0  0  0  0  0  0  0
    1.7375   -0.3792    0.0000 C   0  0  0  0  0  0  0  0  0  0  0  0
    1.5500   -0.9500    0.0000 C   0  0  0  0  0  0  0  0  0  0  0  0
   -0.1458    1.5000    0.0000 C   0  0  0  0  0  0  0  0  0  0  0  0
    0.8000    1.8708    0.0000 C   0  0  0  0  0  0  0  0  0  0  0  0
    2.6000   -1.2500    0.0000 C   0  0  0  0  0  0  0  0  0  0  0  0
   -1.0000   -0.5042    0.0000 C   0  0  0  0  0  0  0  0  0  0  0  0
   -0.0125    2.5208    0.0000 C   0  0  0  0  0  0  0  0  0  0  0  0
    2.0292   -1.3875    0.0000 C   0  0  0  0  0  0  0  0  0  0  0  0
    0.5875    2.4125    0.0000 C   0  0  0  0  0  0  0  0  0  0  0  0
   -0.3625    2.0458    0.0000 C   0  0  0  0  0  0  0  0  0  0  0  0
   -0.2458    3.0500    0.0000 F   0  0  0  0  0  0  0  0  0  0  0  0
   -1.4125   -0.0667    0.0000 C   0  0  0  0  0  0  0  0  0  0  0  0
   -1.1708   -1.0792    0.0000 C   0  0  0  0  0  0  0  0  0  0  0  0
   -1.7708   -1.2042    0.0000 C   0  0  0  0  0  0  0  0  0  0  0  0
   -2.0000   -0.2167    0.0000 C   0  0  0  0  0  0  0  0  0  0  0  0
   -2.1625   -0.7792    0.0000 C   0  0  0  0  0  0  0  0  0  0  0  0
  2  1  1  0  0  0  0
  3  1  1  0  0  0  0
  4  2  1  0  0  0  0
  4  6  1  0  0  0  0
  5  7  1  0  0  0  0
  6  3  1  0  0  0  0
  7  4  1  0  0  0  0
  8  5  1  0  0  0  0
  9  1  1  0  0  0  0
 10 19  1  0  0  0  0
 11  5  2  0  0  0  0
 12  2  2  0  0  0  0
 13  7  1  0  0  0  0
 14  3  2  0  0  0  0
 15 23  1  0  0  0  0
 15 10  2  0  0  0  0
 16 10  1  0  0  0  0
 17 15  1  0  0  0  0
 17 18  1  0  0  0  0
 18 16  1  0  0  0  0
 19 20  2  0  0  0  0
 20 13  1  0  0  0  0
 21  9  1  0  0  0  0
 22  9  2  0  0  0  0
 23 26  2  0  0  0  0
 24  8  1  0  0  0  0
 25 27  2  0  0  0  0
 25 28  1  0  0  0  0
 26 20  1  0  0  0  0
 27 22  1  0  0  0  0
 28 21  2  0  0  0  0
 29 25  1  0  0  0  0
 30 24  2  0  0  0  0
 31 24  1  0  0  0  0
 32 31  2  0  0  0  0
 33 30  1  0  0  0  0
 33 34  2  0  0  0  0
 34 32  1  0  0  0  0
M  END
>  <ID>
5760059

>  <Supplier>
ChemBridge

>  <clogP>
3.470000000000000e+000

>  <RB>
5

>  <tPSA>
7.111000000000000e+001

>  <Hacc>
4

>  <Hdon>
1

>  <LogSw>
-5.643999999999998e+000

>  <Group>
2

>  <Core>
126

$$$$
6552912
 OpenBabel03312015312D

 33 36  0  0  0  0  0  0  0  0999 V2000
    0.7375   -2.2292    0.0000 N   0  0  0  0  0  0  0  0  0  0  0  0
    2.4000   -2.2292    0.0000 N   0  0  0  0  0  0  0  0  0  0  0  0
    1.5667   -0.7542    0.0000 C   0  0  0  0  0  0  0  0  0  0  0  0
    0.7375   -1.2625    0.0000 C   0  0  0  0  0  0  0  0  0  0  0  0
    2.4000   -1.2625    0.0000 C   0  0  0  0  0  0  0  0  0  0  0  0
    1.5667    0.2458    0.0000 C   0  0  0  0  0  0  0  0  0  0  0  0
    3.2917    0.2458    0.0000 C   0  0  0  0  0  0  0  0  0  0  0  0
    5.1542    0.2833    0.0000 C   0  0  0  0  0  0  0  0  0  0  0  0
    2.4292    0.7458    0.0000 C   0  0  0  0  0  0  0  0  0  0  0  0
    4.2875    0.7875    0.0000 O   0  0  0  0  0  0  0  0  0  0  0  0
    6.0292    0.7833    0.0000 C   0  0  0  0  0  0  0  0  0  0  0  0
   -0.1000   -0.7792    0.0000 C   0  0  0  0  0  0  0  0  0  0  0  0
    3.0792   -2.9125    0.0000 C   0  0  0  0  0  0  0  0  0  0  0  0
    6.8917    0.2833    0.0000 C   0  0  0  0  0  0  0  0  0  0  0  0
    3.2917   -0.7500    0.0000 O   0  0  0  0  0  0  0  0  0  0  0  0
    5.1542   -0.7167    0.0000 C   0  0  0  0  0  0  0  0  0  0  0  0
   -0.9375   -1.2667    0.0000 C   0  0  0  0  0  0  0  0  0  0  0  0
   -0.1083    0.1875    0.0000 C   0  0  0  0  0  0  0  0  0  0  0  0
    7.7625   -2.2292    0.0000 O   0  0  0  0  0  0  0  0  0  0  0  0
    6.8917   -0.7167    0.0000 C   0  0  0  0  0  0  0  0  0  0  0  0
    7.7667   -1.2250    0.0000 C   0  0  0  0  0  0  0  0  0  0  0  0
   -1.7833    0.1833    0.0000 C   0  0  0  0  0  0  0  0  0  0  0  0
    6.0250   -1.2250    0.0000 C   0  0  0  0  0  0  0  0  0  0  0  0
    6.0292    1.7875    0.0000 O   0  0  0  0  0  0  0  0  0  0  0  0
   -1.7833   -0.7875    0.0000 C   0  0  0  0  0  0  0  0  0  0  0  0
   -0.9458    0.6708    0.0000 C   0  0  0  0  0  0  0  0  0  0  0  0
   -2.6500    0.6833    0.0000 F   0  0  0  0  0  0  0  0  0  0  0  0
    4.0167   -2.6625    0.0000 C   0  0  0  0  0  0  0  0  0  0  0  0
    2.8292   -3.8417    0.0000 C   0  0  0  0  0  0  0  0  0  0  0  0
    6.9000    2.2958    0.0000 C   0  0  0  0  0  0  0  0  0  0  0  0
    4.7000   -3.3417    0.0000 C   0  0  0  0  0  0  0  0  0  0  0  0
    3.5167   -4.5292    0.0000 C   0  0  0  0  0  0  0  0  0  0  0  0
    4.4500   -4.2792    0.0000 C   0  0  0  0  0  0  0  0  0  0  0  0
  2  1  1  0  0  0  0
  3  4  1  0  0  0  0
  4  1  2  0  0  0  0
  5  2  1  0  0  0  0
  5  3  2  0  0  0  0
  6  3  1  0  0  0  0
  7  9  1  0  0  0  0
  8 10  1  0  0  0  0
  9  6  2  0  0  0  0
 10  7  1  0  0  0  0
 11  8  2  0  0  0  0
 12  4  1  0  0  0  0
 13  2  1  0  0  0  0
 14 11  1  0  0  0  0
 15  7  2  0  0  0  0
 16  8  1  0  0  0  0
 17 12  2  0  0  0  0
 18 12  1  0  0  0  0
 19 21  2  0  0  0  0
 20 23  1  0  0  0  0
 20 14  2  0  0  0  0
 21 20  1  0  0  0  0
 22 26  1  0  0  0  0
 22 25  2  0  0  0  0
 23 16  2  0  0  0  0
 24 11  1  0  0  0  0
 25 17  1  0  0  0  0
 26 18  2  0  0  0  0
 27 22  1  0  0  0  0
 28 13  2  0  0  0  0
 29 13  1  0  0  0  0
 30 24  1  0  0  0  0
 31 28  1  0  0  0  0
 32 29  2  0  0  0  0
 33 32  1  0  0  0  0
 33 31  2  0  0  0  0
M  END
>  <ID>
6552912

>  <Supplier>
ChemBridge

>  <clogP>
6.180000000000000e+000

>  <RB>
7

>  <tPSA>
7.042000000000000e+001

>  <Hacc>
6

>  <Hdon>
0

>  <LogSw>
-7.703000000000000e+000

>  <Group>
1

$$$$
9077065
 OpenBabel03312015312D

 25 27  0  0  0  0  0  0  0  0999 V2000
    7.8042    1.3458    0.0000 N   0  0  0  0  0  0  0  0  0  0  0  0
    2.5542    2.6458    0.0000 C   0  0  0  0  0  0  0  0  0  0  0  0
    7.0542    1.3458    0.0000 C   0  0  0  0  0  0  0  0  0  0  0  0
    2.1792    1.9958    0.0000 C   0  0  0  0  0  0  0  0  0  0  0  0
    3.3042    2.6458    0.0000 C   0  0  0  0  0  0  0  0  0  0  0  0
    4.8042    1.3458    0.0000 N   0  0  0  0  0  0  0  0  0  0  0  0
    9.3042    1.3458    0.0000 O   0  0  0  0  0  0  0  0  0  0  0  0
    6.6792    1.9958    0.0000 C   0  0  0  0  0  0  0  0  0  0  0  0
    6.6792    0.6958    0.0000 C   0  0  0  0  0  0  0  0  0  0  0  0
    2.5542    1.3458    0.0000 C   0  0  0  0  0  0  0  0  0  0  0  0
    5.5542    1.3458    0.0000 C   0  0  0  0  0  0  0  0  0  0  0  0
    3.6792    1.9958    0.0000 C   0  0  0  0  0  0  0  0  0  0  0  0
    4.4292    1.9958    0.0000 C   0  0  0  0  0  0  0  0  0  0  0  0
    5.9292    1.9958    0.0000 C   0  0  0  0  0  0  0  0  0  0  0  0
    5.9292    0.6958    0.0000 C   0  0  0  0  0  0  0  0  0  0  0  0
    3.3042    1.3458    0.0000 C   0  0  0  0  0  0  0  0  0  0  0  0
    2.1792    3.2958    0.0000 O   0  0  0  0  0  0  0  0  0  0  0  0
    1.4292    1.9958    0.0000 O   0  0  0  0  0  0  0  0  0  0  0  0
    8.1792    1.9958    0.0000 C   0  0  0  0  0  0  0  0  0  0  0  0
    8.1792    0.6958    0.0000 C   0  0  0  0  0  0  0  0  0  0  0  0
    8.9292    0.6958    0.0000 C   0  0  0  0  0  0  0  0  0  0  0  0
    8.9292    1.9958    0.0000 C   0  0  0  0  0  0  0  0  0  0  0  0
    1.0542    1.3458    0.0000 C   0  0  0  0  0  0  0  0  0  0  0  0
    2.5542    3.9458    0.0000 C   0  0  0  0  0  0  0  0  0  0  0  0
    0.3042    1.3458    0.0000 C   0  0  0  0  0  0  0  0  0  0  0  0
  2  5  1  0  0  0  0
  3  1  1  0  0  0  0
  4 10  1  0  0  0  0
  4  2  2  0  0  0  0
  5 12  2  0  0  0  0
  6 11  1  0  0  0  0
  7 21  1  0  0  0  0
  7 22  1  0  0  0  0
  8  3  2  0  0  0  0
  9  3  1  0  0  0  0
 10 16  2  0  0  0  0
 11 15  1  0  0  0  0
 11 14  2  0  0  0  0
 12 13  1  0  0  0  0
 13  6  1  0  0  0  0
 14  8  1  0  0  0  0
 15  9  2  0  0  0  0
 16 12  1  0  0  0  0
 17  2  1  0  0  0  0
 18  4  1  0  0  0  0
 19  1  1  0  0  0  0
 20  1  1  0  0  0  0
 21 20  1  0  0  0  0
 22 19  1  0  0  0  0
 23 18  1  0  0  0  0
 24 17  1  0  0  0  0
 25 23  1  0  0  0  0
M  END
>  <ID>
9077065

>  <Supplier>
ChemBridge

>  <clogP>
3.096000000000000e+000

>  <RB>
4

>  <tPSA>
4.296000000000000e+001

>  <Hacc>
3

>  <Hdon>
1

>  <LogSw>
-4.341000000000000e+000

>  <Group>
2

>  <Core>
450

$$$$
9073729
 OpenBabel03312015312D

 21 22  0  0  0  0  0  0  0  0999 V2000
    5.7500    1.4125    0.0000 S   0  0  0  0  0  0  0  0  0  0  0  0
    5.0000    1.4125    0.0000 N   0  0  0  0  0  0  0  0  0  0  0  0
    2.7500    1.4125    0.0000 C   0  0  0  0  0  0  0  0  0  0  0  0
    2.3750    2.0625    0.0000 N   0  0  0  0  0  0  0  0  0  0  0  0
    1.6250    2.0625    0.0000 C   0  0  0  0  0  0  0  0  0  0  0  0
    5.6875    0.6708    0.0000 O   0  0  0  0  0  0  0  0  0  0  0  0
    6.4917    1.2833    0.0000 O   0  0  0  0  0  0  0  0  0  0  0  0
    3.5000    1.4125    0.0000 C   0  0  0  0  0  0  0  0  0  0  0  0
    4.6250    0.7625    0.0000 C   0  0  0  0  0  0  0  0  0  0  0  0
    4.6250    2.0625    0.0000 C   0  0  0  0  0  0  0  0  0  0  0  0
    2.3750    0.7625    0.0000 O   0  0  0  0  0  0  0  0  0  0  0  0
    1.2500    2.7125    0.0000 C   0  0  0  0  0  0  0  0  0  0  0  0
    3.8750    0.7625    0.0000 C   0  0  0  0  0  0  0  0  0  0  0  0
    3.8750    2.0625    0.0000 C   0  0  0  0  0  0  0  0  0  0  0  0
    5.9417    2.1458    0.0000 C   0  0  0  0  0  0  0  0  0  0  0  0
    1.2500    1.4125    0.0000 C   0  0  0  0  0  0  0  0  0  0  0  0
    1.6250    3.3625    0.0000 C   0  0  0  0  0  0  0  0  0  0  0  0
    0.5000    2.7125    0.0000 C   0  0  0  0  0  0  0  0  0  0  0  0
    6.6667    2.3333    0.0000 C   0  0  0  0  0  0  0  0  0  0  0  0
    0.5000    1.4125    0.0000 C   0  0  0  0  0  0  0  0  0  0  0  0
    0.1250    2.0625    0.0000 C   0  0  0  0  0  0  0  0  0  0  0  0
  2  1  1  0  0  0  0
  3  8  1  0  0  0  0
  4  3  1  0  0  0  0
  5  4  1  0  0  0  0
  6  1  2  0  0  0  0
  7  1  2  0  0  0  0
  8 14  1  0  0  0  0
  9  2  1  0  0  0  0
 10  2  1  0  0  0  0
 11  3  2  0  0  0  0
 12  5  2  0  0  0  0
 13  9  1  0  0  0  0
 13  8  1  0  0  0  0
 14 10  1  0  0  0  0
 15  1  1  0  0  0  0
 16  5  1  0  0  0  0
 17 12  1  0  0  0  0
 18 12  1  0  0  0  0
 19 15  1  0  0  0  0
 20 16  2  0  0  0  0
 21 20  1  0  0  0  0
 21 18  2  0  0  0  0
M  END
>  <ID>
9073729

>  <Supplier>
ChemBridge

>  <clogP>
7.970000000000000e-001

>  <RB>
2

>  <tPSA>
6.647999999999998e+001

>  <Hacc>
4

>  <Hdon>
1

>  <LogSw>
-2.144000000000000e+000

>  <Group>
2

>  <Core>
050

$$$$
9073728
 OpenBabel03312015312D

 24 26  0  0  0  0  0  0  0  0999 V2000
    4.9000    3.5333    0.0000 C   0  0  0  0  0  0  0  0  0  0  0  0
    5.5042    3.9833    0.0000 N   0  0  0  0  0  0  0  0  0  0  0  0
    4.2917    3.9833    0.0000 N   0  0  0  0  0  0  0  0  0  0  0  0
    4.5250    4.6792    0.0000 N   0  0  0  0  0  0  0  0  0  0  0  0
    5.2750    4.6792    0.0000 N   0  0  0  0  0  0  0  0  0  0  0  0
    4.9000    2.7833    0.0000 N   0  0  0  0  0  0  0  0  0  0  0  0
    4.2542    1.6583    0.0000 C   0  0  0  0  0  0  0  0  0  0  0  0
    4.2542    2.4083    0.0000 C   0  0  0  0  0  0  0  0  0  0  0  0
    3.6042    1.2833    0.0000 C   0  0  0  0  0  0  0  0  0  0  0  0
    2.9542    1.6583    0.0000 O   0  0  0  0  0  0  0  0  0  0  0  0
    6.2167    3.7458    0.0000 C   0  0  0  0  0  0  0  0  0  0  0  0
    2.3042    1.2833    0.0000 C   0  0  0  0  0  0  0  0  0  0  0  0
    1.6542    1.6583    0.0000 C   0  0  0  0  0  0  0  0  0  0  0  0
    0.3542    2.4083    0.0000 C   0  0  0  0  0  0  0  0  0  0  0  0
    1.0042    1.2833    0.0000 C   0  0  0  0  0  0  0  0  0  0  0  0
    1.6542    2.4083    0.0000 C   0  0  0  0  0  0  0  0  0  0  0  0
    1.0042    2.7833    0.0000 C   0  0  0  0  0  0  0  0  0  0  0  0
    0.3542    1.6583    0.0000 C   0  0  0  0  0  0  0  0  0  0  0  0
    4.9000    1.2833    0.0000 C   0  0  0  0  0  0  0  0  0  0  0  0
    3.6042    0.5333    0.0000 C   0  0  0  0  0  0  0  0  0  0  0  0
   -0.2958    2.7833    0.0000 C   0  0  0  0  0  0  0  0  0  0  0  0
    6.7792    4.2417    0.0000 C   0  0  0  0  0  0  0  0  0  0  0  0
    4.9000    0.5333    0.0000 C   0  0  0  0  0  0  0  0  0  0  0  0
    4.2542    0.1583    0.0000 C   0  0  0  0  0  0  0  0  0  0  0  0
  2  1  1  0  0  0  0
  3  1  2  0  0  0  0
  4  3  1  0  0  0  0
  5  2  1  0  0  0  0
  5  4  2  0  0  0  0
  6  1  1  0  0  0  0
  7  8  1  0  0  0  0
  8  6  1  0  0  0  0
  9  7  1  0  0  0  0
 10  9  1  0  0  0  0
 11  2  1  0  0  0  0
 12 10  1  0  0  0  0
 13 12  1  0  0  0  0
 14 17  2  0  0  0  0
 15 13  1  0  0  0  0
 16 13  2  0  0  0  0
 17 16  1  0  0  0  0
 18 15  2  0  0  0  0
 18 14  1  0  0  0  0
 19  7  2  0  0  0  0
 20  9  2  0  0  0  0
 20 24  1  0  0  0  0
 21 14  1  0  0  0  0
 22 11  1  0  0  0  0
 23 19  1  0  0  0  0
 24 23  2  0  0  0  0
M  END
>  <ID>
9073728

>  <Supplier>
ChemBridge

>  <clogP>
4.319000000000000e+000

>  <RB>
6

>  <tPSA>
6.486000000000001e+001

>  <Hacc>
4

>  <Hdon>
1

>  <LogSw>
-5.247000000000000e+000

>  <Group>
2

$$$$
9060854
 OpenBabel03312015312D

 20 22  0  0  0  0  0  0  0  0999 V2000
    4.8417    2.1458    0.0000 C   0  0  0  0  0  0  0  0  0  0  0  0
    4.8417    1.3958    0.0000 C   0  0  0  0  0  0  0  0  0  0  0  0
    4.1917    1.0208    0.0000 N   0  0  0  0  0  0  0  0  0  0  0  0
    5.4917    2.5208    0.0000 C   0  0  0  0  0  0  0  0  0  0  0  0
    3.5417    1.3958    0.0000 C   0  0  0  0  0  0  0  0  0  0  0  0
    3.5417    2.1458    0.0000 N   0  0  0  0  0  0  0  0  0  0  0  0
    4.1917    2.5208    0.0000 C   0  0  0  0  0  0  0  0  0  0  0  0
    6.1375    1.3958    0.0000 C   0  0  0  0  0  0  0  0  0  0  0  0
    5.4917    1.0208    0.0000 C   0  0  0  0  0  0  0  0  0  0  0  0
    6.1375    2.1458    0.0000 C   0  0  0  0  0  0  0  0  0  0  0  0
    1.5917    1.0208    0.0000 C   0  0  0  0  0  0  0  0  0  0  0  0
    0.9042    1.3250    0.0000 O   0  0  0  0  0  0  0  0  0  0  0  0
    2.8917    1.0208    0.0000 N   0  0  0  0  0  0  0  0  0  0  0  0
    5.4917    3.2708    0.0000 O   0  0  0  0  0  0  0  0  0  0  0  0
    1.5125    0.2708    0.0000 C   0  0  0  0  0  0  0  0  0  0  0  0
    0.4042    0.7708    0.0000 C   0  0  0  0  0  0  0  0  0  0  0  0
    0.7792    0.1208    0.0000 C   0  0  0  0  0  0  0  0  0  0  0  0
    2.2417    1.3958    0.0000 C   0  0  0  0  0  0  0  0  0  0  0  0
    6.3917    0.6875    0.0000 C   0  0  0  0  0  0  0  0  0  0  0  0
    6.8792    1.5250    0.0000 C   0  0  0  0  0  0  0  0  0  0  0  0
  2  1  1  0  0  0  0
  3  2  2  0  0  0  0
  4  1  1  0  0  0  0
  5  6  2  0  0  0  0
  5  3  1  0  0  0  0
  6  7  1  0  0  0  0
  7  1  2  0  0  0  0
  8 10  1  0  0  0  0
  8  9  1  0  0  0  0
  9  2  1  0  0  0  0
 10  4  1  0  0  0  0
 11 18  1  0  0  0  0
 12 11  1  0  0  0  0
 13  5  1  0  0  0  0
 14  4  2  0  0  0  0
 15 11  2  0  0  0  0
 16 12  1  0  0  0  0
 17 15  1  0  0  0  0
 17 16  2  0  0  0  0
 18 13  1  0  0  0  0
 19  8  1  0  0  0  0
 20  8  1  0  0  0  0
M  END
>  <ID>
9060854

>  <Supplier>
ChemBridge

>  <clogP>
2.561000000000000e+000

>  <RB>
3

>  <tPSA>
6.802000000000000e+001

>  <Hacc>
4

>  <Hdon>
1

>  <LogSw>
-3.470000000000000e+000

>  <Group>
2

>  <Core>
279

$$$$
9077062
 OpenBabel03312015312D

 18 18  0  0  0  0  0  0  0  0999 V2000
    2.9792    1.7875    0.0000 C   0  0  0  0  0  0  0  0  0  0  0  0
    3.7292    1.7875    0.0000 C   0  0  0  0  0  0  0  0  0  0  0  0
    4.8542    1.1375    0.0000 C   0  0  0  0  0  0  0  0  0  0  0  0
    4.1042    1.1375    0.0000 C   0  0  0  0  0  0  0  0  0  0  0  0
    5.2292    1.7875    0.0000 C   0  0  0  0  0  0  0  0  0  0  0  0
    2.6042    1.1375    0.0000 O   0  0  0  0  0  0  0  0  0  0  0  0
    4.1042    2.4375    0.0000 C   0  0  0  0  0  0  0  0  0  0  0  0
    4.8542    2.4375    0.0000 C   0  0  0  0  0  0  0  0  0  0  0  0
    2.6042    2.4375    0.0000 N   0  0  0  0  0  0  0  0  0  0  0  0
    5.2292    0.4875    0.0000 Br  0  0  0  0  0  0  0  0  0  0  0  0
    5.9792    1.7875    0.0000 O   0  0  0  0  0  0  0  0  0  0  0  0
    7.4792    3.0875    0.0000 O   0  0  0  0  0  0  0  0  0  0  0  0
    1.8542    2.4375    0.0000 C   0  0  0  0  0  0  0  0  0  0  0  0
    6.3542    2.4375    0.0000 C   0  0  0  0  0  0  0  0  0  0  0  0
    7.1042    2.4375    0.0000 C   0  0  0  0  0  0  0  0  0  0  0  0
    8.2292    3.0875    0.0000 C   0  0  0  0  0  0  0  0  0  0  0  0
    1.4792    3.0875    0.0000 C   0  0  0  0  0  0  0  0  0  0  0  0
    0.7292    3.0875    0.0000 C   0  0  0  0  0  0  0  0  0  0  0  0
  2  1  1  0  0  0  0
  3  4  1  0  0  0  0
  3  5  2  0  0  0  0
  4  2  2  0  0  0  0
  5  8  1  0  0  0  0
  6  1  2  0  0  0  0
  7  2  1  0  0  0  0
  8  7  2  0  0  0  0
  9  1  1  0  0  0  0
 10  3  1  0  0  0  0
 11  5  1  0  0  0  0
 12 15  1  0  0  0  0
 13  9  1  0  0  0  0
 14 11  1  0  0  0  0
 15 14  1  0  0  0  0
 16 12  1  0  0  0  0
 17 13  1  0  0  0  0
 18 17  1  0  0  0  0
M  END
>  <ID>
9077062

>  <Supplier>
ChemBridge

>  <clogP>
2.640000000000000e+000

>  <RB>
4

>  <tPSA>
4.756000000000000e+001

>  <Hacc>
3

>  <Hdon>
1

>  <LogSw>
-3.760000000000000e+000

>  <Group>
3

$$$$
9073727
 OpenBabel03312015312D

 22 23  0  0  0  0  0  0  0  0999 V2000
    7.0250    1.4625    0.0000 C   0  0  0  0  0  0  0  0  0  0  0  0
    6.2750    1.4625    0.0000 C   0  0  0  0  0  0  0  0  0  0  0  0
    5.9000    2.1125    0.0000 C   0  0  0  0  0  0  0  0  0  0  0  0
    5.1500    2.1125    0.0000 C   0  0  0  0  0  0  0  0  0  0  0  0
    1.7750    2.7708    0.0000 C   0  0  0  0  0  0  0  0  0  0  0  0
    4.0250    1.4625    0.0000 N   0  0  0  0  0  0  0  0  0  0  0  0
    4.7750    1.4625    0.0000 C   0  0  0  0  0  0  0  0  0  0  0  0
    1.4000    2.1125    0.0000 C   0  0  0  0  0  0  0  0  0  0  0  0
    2.5250    2.7708    0.0000 C   0  0  0  0  0  0  0  0  0  0  0  0
    7.4000    0.8125    0.0000 O   0  0  0  0  0  0  0  0  0  0  0  0
    5.9000    0.8125    0.0000 C   0  0  0  0  0  0  0  0  0  0  0  0
    5.1500    0.8125    0.0000 C   0  0  0  0  0  0  0  0  0  0  0  0
    1.7750    1.4625    0.0000 C   0  0  0  0  0  0  0  0  0  0  0  0
    2.9000    2.1125    0.0000 C   0  0  0  0  0  0  0  0  0  0  0  0
    3.6500    2.1125    0.0000 C   0  0  0  0  0  0  0  0  0  0  0  0
    7.4000    2.1125    0.0000 O   0  0  0  0  0  0  0  0  0  0  0  0
    2.5250    1.4625    0.0000 C   0  0  0  0  0  0  0  0  0  0  0  0
    1.4000    3.4208    0.0000 O   0  0  0  0  0  0  0  0  0  0  0  0
    0.6500    2.1125    0.0000 O   0  0  0  0  0  0  0  0  0  0  0  0
    4.7750    2.7708    0.0000 C   0  0  0  0  0  0  0  0  0  0  0  0
    1.7750    4.0542    0.0000 C   0  0  0  0  0  0  0  0  0  0  0  0
    0.2750    1.4625    0.0000 C   0  0  0  0  0  0  0  0  0  0  0  0
  2  1  1  0  0  0  0
  3  2  1  0  0  0  0
  4  3  2  0  0  0  0
  4  7  1  0  0  0  0
  5  9  2  0  0  0  0
  6  7  1  0  0  0  0
  7 12  2  0  0  0  0
  8 13  2  0  0  0  0
  8  5  1  0  0  0  0
  9 14  1  0  0  0  0
 10  1  2  0  0  0  0
 11  2  2  0  0  0  0
 12 11  1  0  0  0  0
 13 17  1  0  0  0  0
 14 15  1  0  0  0  0
 15  6  1  0  0  0  0
 16  1  1  0  0  0  0
 17 14  2  0  0  0  0
 18  5  1  0  0  0  0
 19  8  1  0  0  0  0
 20  4  1  0  0  0  0
 21 18  1  0  0  0  0
 22 19  1  0  0  0  0
M  END
>  <ID>
9073727

>  <Supplier>
ChemBridge

>  <clogP>
3.335000000000000e+000

>  <RB>
4

>  <tPSA>
6.779000000000002e+001

>  <Hacc>
4

>  <Hdon>
2

>  <LogSw>
-4.246000000000000e+000

>  <Group>
2

>  <Core>
450

$$$$
9073721
 OpenBabel03312015312D

 22 24  0  0  0  0  0  0  0  0999 V2000
    3.1292    2.2958    0.0000 C   0  0  0  0  0  0  0  0  0  0  0  0
    3.1292    1.5458    0.0000 C   0  0  0  0  0  0  0  0  0  0  0  0
    4.2792    1.9208    0.0000 C   0  0  0  0  0  0  0  0  0  0  0  0
    3.8417    2.5333    0.0000 N   0  0  0  0  0  0  0  0  0  0  0  0
    3.8417    1.3208    0.0000 N   0  0  0  0  0  0  0  0  0  0  0  0
    2.4792    1.1708    0.0000 N   0  0  0  0  0  0  0  0  0  0  0  0
    1.8292    2.2958    0.0000 N   0  0  0  0  0  0  0  0  0  0  0  0
    1.8292    1.5458    0.0000 C   0  0  0  0  0  0  0  0  0  0  0  0
    2.4792    2.6708    0.0000 C   0  0  0  0  0  0  0  0  0  0  0  0
    4.9917    2.1583    0.0000 N   0  0  0  0  0  0  0  0  0  0  0  0
    4.2792    3.1333    0.0000 C   0  0  0  0  0  0  0  0  0  0  0  0
    4.9917    2.9083    0.0000 C   0  0  0  0  0  0  0  0  0  0  0  0
    1.1792    1.1708    0.0000 O   0  0  0  0  0  0  0  0  0  0  0  0
    2.4792    3.4208    0.0000 O   0  0  0  0  0  0  0  0  0  0  0  0
    1.1792    2.6708    0.0000 C   0  0  0  0  0  0  0  0  0  0  0  0
    2.4792    0.4208    0.0000 C   0  0  0  0  0  0  0  0  0  0  0  0
    1.1792    3.4208    0.0000 C   0  0  0  0  0  0  0  0  0  0  0  0
    0.5292    3.7958    0.0000 C   0  0  0  0  0  0  0  0  0  0  0  0
    5.6042    1.7125    0.0000 C   0  0  0  0  0  0  0  0  0  0  0  0
    5.6042    3.3458    0.0000 C   0  0  0  0  0  0  0  0  0  0  0  0
    6.2875    2.0208    0.0000 C   0  0  0  0  0  0  0  0  0  0  0  0
    6.8917    1.5750    0.0000 C   0  0  0  0  0  0  0  0  0  0  0  0
  2  1  2  0  0  0  0
  3  4  1  0  0  0  0
  4  1  1  0  0  0  0
  5  2  1  0  0  0  0
  5  3  2  0  0  0  0
  6  2  1  0  0  0  0
  7  9  1  0  0  0  0
  8  7  1  0  0  0  0
  8  6  1  0  0  0  0
  9  1  1  0  0  0  0
 10  3  1  0  0  0  0
 11  4  1  0  0  0  0
 12 11  2  0  0  0  0
 12 10  1  0  0  0  0
 13  8  2  0  0  0  0
 14  9  2  0  0  0  0
 15  7  1  0  0  0  0
 16  6  1  0  0  0  0
 17 15  1  0  0  0  0
 18 17  2  0  0  0  0
 19 10  1  0  0  0  0
 20 12  1  0  0  0  0
 21 19  1  0  0  0  0
 22 21  1  0  0  0  0
M  END
>  <ID>
9073721

>  <Supplier>
ChemBridge

>  <clogP>
2.258000000000000e+000

>  <RB>
2

>  <tPSA>
6.622999999999995e+001

>  <Hacc>
3

>  <Hdon>
0

>  <LogSw>
-3.319000000000000e+000

>  <Group>
2

>  <Core>
131

$$$$
9073720
 OpenBabel03312015312D

 29 31  0  0  0  0  0  0  0  0999 V2000
    6.7667    1.4125    0.0000 N   0  0  0  0  0  0  0  0  0  0  0  0
    7.2042    2.0208    0.0000 C   0  0  0  0  0  0  0  0  0  0  0  0
    6.0500    1.6458    0.0000 C   0  0  0  0  0  0  0  0  0  0  0  0
    6.7667    2.6250    0.0000 N   0  0  0  0  0  0  0  0  0  0  0  0
    4.1542    1.0708    0.0000 C   0  0  0  0  0  0  0  0  0  0  0  0
    6.0500    2.3958    0.0000 O   0  0  0  0  0  0  0  0  0  0  0  0
    4.7542    1.5083    0.0000 N   0  0  0  0  0  0  0  0  0  0  0  0
    7.9542    2.0208    0.0000 C   0  0  0  0  0  0  0  0  0  0  0  0
    5.4417    1.2000    0.0000 C   0  0  0  0  0  0  0  0  0  0  0  0
    1.5667    0.7958    0.0000 C   0  0  0  0  0  0  0  0  0  0  0  0
    3.4667    1.3708    0.0000 C   0  0  0  0  0  0  0  0  0  0  0  0
    1.6417    0.0500    0.0000 C   0  0  0  0  0  0  0  0  0  0  0  0
    4.2292    0.3208    0.0000 O   0  0  0  0  0  0  0  0  0  0  0  0
    2.1750    1.2375    0.0000 C   0  0  0  0  0  0  0  0  0  0  0  0
    2.8625    0.9333    0.0000 C   0  0  0  0  0  0  0  0  0  0  0  0
    8.3292    1.3708    0.0000 C   0  0  0  0  0  0  0  0  0  0  0  0
    2.3292   -0.2542    0.0000 C   0  0  0  0  0  0  0  0  0  0  0  0
    2.9375    0.1833    0.0000 C   0  0  0  0  0  0  0  0  0  0  0  0
    9.0792    1.3708    0.0000 C   0  0  0  0  0  0  0  0  0  0  0  0
    0.8792    1.1000    0.0000 O   0  0  0  0  0  0  0  0  0  0  0  0
    1.0417   -0.3917    0.0000 O   0  0  0  0  0  0  0  0  0  0  0  0
    4.6792    2.2583    0.0000 C   0  0  0  0  0  0  0  0  0  0  0  0
    8.3292    2.6708    0.0000 C   0  0  0  0  0  0  0  0  0  0  0  0
    9.0792    2.6708    0.0000 C   0  0  0  0  0  0  0  0  0  0  0  0
    9.4542    2.0208    0.0000 C   0  0  0  0  0  0  0  0  0  0  0  0
    9.4542    0.7208    0.0000 C   0  0  0  0  0  0  0  0  0  0  0  0
    0.8042    1.8458    0.0000 C   0  0  0  0  0  0  0  0  0  0  0  0
    1.1167   -1.1375    0.0000 C   0  0  0  0  0  0  0  0  0  0  0  0
    5.2875    2.6958    0.0000 C   0  0  0  0  0  0  0  0  0  0  0  0
  2  1  1  0  0  0  0
  3  1  2  0  0  0  0
  4  2  2  0  0  0  0
  5  7  1  0  0  0  0
  6  3  1  0  0  0  0
  6  4  1  0  0  0  0
  7  9  1  0  0  0  0
  8  2  1  0  0  0  0
  9  3  1  0  0  0  0
 10 14  2  0  0  0  0
 11  5  1  0  0  0  0
 12 17  2  0  0  0  0
 12 10  1  0  0  0  0
 13  5  2  0  0  0  0
 14 15  1  0  0  0  0
 15 11  1  0  0  0  0
 16  8  2  0  0  0  0
 17 18  1  0  0  0  0
 18 15  2  0  0  0  0
 19 16  1  0  0  0  0
 20 10  1  0  0  0  0
 21 12  1  0  0  0  0
 22  7  1  0  0  0  0
 23  8  1  0  0  0  0
 24 23  2  0  0  0  0
 25 24  1  0  0  0  0
 25 19  2  0  0  0  0
 26 19  1  0  0  0  0
 27 20  1  0  0  0  0
 28 21  1  0  0  0  0
 29 22  1  0  0  0  0
M  END
>  <ID>
9073720

>  <Supplier>
ChemBridge

>  <clogP>
2.790000000000000e+000

>  <RB>
5

>  <tPSA>
7.769000000000000e+001

>  <Hacc>
6

>  <Hdon>
0

>  <LogSw>
-4.466000000000000e+000

>  <Group>
2

>  <Core>
204

$$$$
9073723
 OpenBabel03312015312D

 21 21  0  0  0  0  0  0  0  0999 V2000
    4.5000    4.0042    0.0000 S   0  0  0  0  0  0  0  0  0  0  0  0
    4.1250    3.3583    0.0000 C   0  0  0  0  0  0  0  0  0  0  0  0
    3.0000    2.7083    0.0000 C   0  0  0  0  0  0  0  0  0  0  0  0
    3.3750    3.3583    0.0000 C   0  0  0  0  0  0  0  0  0  0  0  0
    2.2500    2.7083    0.0000 N   0  0  0  0  0  0  0  0  0  0  0  0
    4.7542    4.7042    0.0000 O   0  0  0  0  0  0  0  0  0  0  0  0
    3.8167    4.3167    0.0000 O   0  0  0  0  0  0  0  0  0  0  0  0
    1.8750    3.3583    0.0000 C   0  0  0  0  0  0  0  0  0  0  0  0
    5.2250    3.8208    0.0000 N   0  0  0  0  0  0  0  0  0  0  0  0
    3.3750    2.0583    0.0000 C   0  0  0  0  0  0  0  0  0  0  0  0
    4.5000    2.7083    0.0000 C   0  0  0  0  0  0  0  0  0  0  0  0
    2.2500    4.0042    0.0000 O   0  0  0  0  0  0  0  0  0  0  0  0
    4.1250    2.0583    0.0000 C   0  0  0  0  0  0  0  0  0  0  0  0
    3.0000    1.4125    0.0000 O   0  0  0  0  0  0  0  0  0  0  0  0
    1.1250    3.3583    0.0000 C   0  0  0  0  0  0  0  0  0  0  0  0
    5.7542    4.3417    0.0000 C   0  0  0  0  0  0  0  0  0  0  0  0
    3.3750    0.7625    0.0000 C   0  0  0  0  0  0  0  0  0  0  0  0
    6.4792    4.1417    0.0000 C   0  0  0  0  0  0  0  0  0  0  0  0
    7.0042    4.6792    0.0000 C   0  0  0  0  0  0  0  0  0  0  0  0
    0.7500    4.0042    0.0000 C   0  0  0  0  0  0  0  0  0  0  0  0
    7.7292    4.4792    0.0000 C   0  0  0  0  0  0  0  0  0  0  0  0
  2  1  1  0  0  0  0
  3  4  1  0  0  0  0
  4  2  2  0  0  0  0
  5  3  1  0  0  0  0
  6  1  2  0  0  0  0
  7  1  2  0  0  0  0
  8  5  1  0  0  0  0
  9  1  1  0  0  0  0
 10 13  1  0  0  0  0
 10  3  2  0  0  0  0
 11  2  1  0  0  0  0
 12  8  2  0  0  0  0
 13 11  2  0  0  0  0
 14 10  1  0  0  0  0
 15  8  1  0  0  0  0
 16  9  1  0  0  0  0
 17 14  1  0  0  0  0
 18 16  1  0  0  0  0
 19 18  1  0  0  0  0
 20 15  1  0  0  0  0
 21 19  1  0  0  0  0
M  END
>  <ID>
9073723

>  <Supplier>
ChemBridge

>  <clogP>
1.960000000000000e+000

>  <RB>
3

>  <tPSA>
8.450000000000004e+001

>  <Hacc>
5

>  <Hdon>
2

>  <LogSw>
-3.167000000000000e+000

>  <Group>
2

>  <Core>
236

$$$$
9004029
 OpenBabel03312015312D

 14 16  0  0  0  0  0  0  0  0999 V2000
    2.8292    0.8333    0.0000 C   0  0  0  0  0  0  0  0  0  0  0  0
    1.7250    1.3333    0.0000 C   0  0  0  0  0  0  0  0  0  0  0  0
    2.3292    0.2833    0.0000 S   0  0  0  0  0  0  0  0  0  0  0  0
    2.4542    1.4833    0.0000 C   0  0  0  0  0  0  0  0  0  0  0  0
    1.6417    0.5833    0.0000 C   0  0  0  0  0  0  0  0  0  0  0  0
    3.5792    0.8333    0.0000 N   0  0  0  0  0  0  0  0  0  0  0  0
    2.8292    2.1333    0.0000 N   0  0  0  0  0  0  0  0  0  0  0  0
    3.9542    1.4833    0.0000 C   0  0  0  0  0  0  0  0  0  0  0  0
    3.5792    2.1333    0.0000 C   0  0  0  0  0  0  0  0  0  0  0  0
    4.7042    1.4833    0.0000 N   0  0  0  0  0  0  0  0  0  0  0  0
    1.1167    1.7708    0.0000 C   0  0  0  0  0  0  0  0  0  0  0  0
    0.9542    0.2833    0.0000 C   0  0  0  0  0  0  0  0  0  0  0  0
    0.4292    1.4625    0.0000 C   0  0  0  0  0  0  0  0  0  0  0  0
    0.3542    0.7208    0.0000 C   0  0  0  0  0  0  0  0  0  0  0  0
  2  4  1  0  0  0  0
  2  5  2  0  0  0  0
  3  1  1  0  0  0  0
  4  1  2  0  0  0  0
  5  3  1  0  0  0  0
  6  1  1  0  0  0  0
  7  4  1  0  0  0  0
  8  6  2  0  0  0  0
  9  8  1  0  0  0  0
  9  7  2  0  0  0  0
 10  8  1  0  0  0  0
 11  2  1  0  0  0  0
 12  5  1  0  0  0  0
 13 11  1  0  0  0  0
 14 12  1  0  0  0  0
 14 13  1  0  0  0  0
M  END
>  <ID>
9004029

>  <Supplier>
ChemBridge

>  <clogP>
2.680000000000000e+000

>  <RB>
0

>  <tPSA>
5.180000000000000e+001

>  <Hacc>
2

>  <Hdon>
1

>  <LogSw>
-2.987000000000000e+000

>  <Group>
3

$$$$
6636107
 OpenBabel03312015312D

 27 29  0  0  0  0  0  0  0  0999 V2000
   -2.0333   -1.5042    0.0000 C   0  0  0  0  0  0  0  0  0  0  0  0
    3.4792    0.1708    0.0000 N   0  3  0  0  0  0  0  0  0  0  0  0
   -2.5000   -0.7000    0.0000 C   0  0  0  0  0  0  0  0  0  0  0  0
    0.7542   -1.4875    0.0000 C   0  0  0  0  0  0  0  0  0  0  0  0
   -2.4833   -2.3042    0.0000 C   0  0  0  0  0  0  0  0  0  0  0  0
   -3.4208   -0.7000    0.0000 N   0  0  0  0  0  0  0  0  0  0  0  0
    3.0292   -0.6292    0.0000 C   0  0  0  0  0  0  0  0  0  0  0  0
    0.3000   -0.7000    0.0000 N   0  0  0  0  0  0  0  0  0  0  0  0
    1.6792   -1.4792    0.0000 C   0  0  0  0  0  0  0  0  0  0  0  0
   -1.1000   -1.5042    0.0000 C   0  0  0  0  0  0  0  0  0  0  0  0
    2.0875   -0.6792    0.0000 C   0  0  0  0  0  0  0  0  0  0  0  0
   -2.0208    0.1125    0.0000 C   0  0  0  0  0  0  0  0  0  0  0  0
    4.3875    0.1708    0.0000 O   0  5  0  0  0  0  0  0  0  0  0  0
    3.0167    0.9625    0.0000 O   0  0  0  0  0  0  0  0  0  0  0  0
   -0.6208   -0.7000    0.0000 C   0  0  0  0  0  0  0  0  0  0  0  0
    0.3042   -2.2875    0.0000 O   0  0  0  0  0  0  0  0  0  0  0  0
   -3.3958   -2.3042    0.0000 O   0  0  0  0  0  0  0  0  0  0  0  0
   -2.0208   -3.1042    0.0000 N   0  0  0  0  0  0  0  0  0  0  0  0
   -1.0958    0.1125    0.0000 C   0  0  0  0  0  0  0  0  0  0  0  0
   -3.8833   -1.5000    0.0000 C   0  0  0  0  0  0  0  0  0  0  0  0
   -3.8958    0.1000    0.0000 C   0  0  0  0  0  0  0  0  0  0  0  0
    3.5042   -1.4000    0.0000 C   0  0  0  0  0  0  0  0  0  0  0  0
    2.1792   -2.2667    0.0000 C   0  0  0  0  0  0  0  0  0  0  0  0
    3.0875   -2.2167    0.0000 C   0  0  0  0  0  0  0  0  0  0  0  0
   -4.8208    0.0958    0.0000 C   0  0  0  0  0  0  0  0  0  0  0  0
   -4.8125   -1.5042    0.0000 C   0  0  0  0  0  0  0  0  0  0  0  0
   -5.2833   -0.7042    0.0000 C   0  0  0  0  0  0  0  0  0  0  0  0
  2  7  1  0  0  0  0
  3  1  2  0  0  0  0
  4  8  1  0  0  0  0
  5  1  1  0  0  0  0
  6  3  1  0  0  0  0
  7 11  2  0  0  0  0
  8 15  1  0  0  0  0
  9  4  1  0  0  0  0
 10  1  1  0  0  0  0
 11  9  1  0  0  0  0
 12  3  1  0  0  0  0
 12 19  2  0  0  0  0
 13  2  1  0  0  0  0
 14  2  2  0  0  0  0
 15 10  2  0  0  0  0
 16  4  2  0  0  0  0
 17  5  2  0  0  0  0
 18  5  1  0  0  0  0
 19 15  1  0  0  0  0
 20  6  1  0  0  0  0
 21  6  1  0  0  0  0
 22 24  2  0  0  0  0
 22  7  1  0  0  0  0
 23  9  2  0  0  0  0
 24 23  1  0  0  0  0
 25 21  1  0  0  0  0
 26 20  1  0  0  0  0
 26 27  1  0  0  0  0
 27 25  1  0  0  0  0
M  CHG  2   2   1  13  -1
M  END
>  <ID>
6636107

>  <Supplier>
ChemBridge

>  <clogP>
2.840000000000000e+000

>  <RB>
4

>  <tPSA>
1.185700000000000e+002

>  <Hacc>
4

>  <Hdon>
2

>  <LogSw>
-4.701000000000001e+000

>  <Group>
3

>  <Core>
146

$$$$
6134261
 OpenBabel03312015312D

 21 22  0  0  0  0  0  0  0  0999 V2000
    3.6375   -9.7542    0.0000 C   0  0  0  0  0  0  0  0  0  0  0  0
    3.6375  -10.5875    0.0000 C   0  0  0  0  0  0  0  0  0  0  0  0
    4.3500   -9.3500    0.0000 N   0  0  0  0  0  0  0  0  0  0  0  0
    5.0542   -8.9292    0.0000 C   0  0  0  0  0  0  0  0  0  0  0  0
    2.9167   -9.3500    0.0000 C   0  0  0  0  0  0  0  0  0  0  0  0
    5.7667   -9.3375    0.0000 O   0  0  0  0  0  0  0  0  0  0  0  0
    4.3500  -11.0000    0.0000 C   0  0  0  0  0  0  0  0  0  0  0  0
    5.7667   -7.7000    0.0000 O   0  0  0  0  0  0  0  0  0  0  0  0
    5.0500   -8.1042    0.0000 C   0  0  0  0  0  0  0  0  0  0  0  0
    5.7667   -6.8667    0.0000 C   0  0  0  0  0  0  0  0  0  0  0  0
    2.9167  -11.0000    0.0000 C   0  0  0  0  0  0  0  0  0  0  0  0
    2.2042  -10.5875    0.0000 C   0  0  0  0  0  0  0  0  0  0  0  0
    2.2042   -9.7542    0.0000 C   0  0  0  0  0  0  0  0  0  0  0  0
    2.9042   -8.5167    0.0000 C   0  0  0  0  0  0  0  0  0  0  0  0
    5.0542  -10.5875    0.0000 C   0  0  0  0  0  0  0  0  0  0  0  0
    4.3500  -11.8167    0.0000 C   0  0  0  0  0  0  0  0  0  0  0  0
    5.0542   -6.4542    0.0000 C   0  0  0  0  0  0  0  0  0  0  0  0
    6.4875   -6.4542    0.0000 C   0  0  0  0  0  0  0  0  0  0  0  0
    5.0542   -5.6375    0.0000 C   0  0  0  0  0  0  0  0  0  0  0  0
    6.4875   -5.6375    0.0000 C   0  0  0  0  0  0  0  0  0  0  0  0
    5.7667   -5.2167    0.0000 C   0  0  0  0  0  0  0  0  0  0  0  0
  2  1  1  0  0  0  0
  3  1  1  0  0  0  0
  4  3  1  0  0  0  0
  5  1  2  0  0  0  0
  6  4  2  0  0  0  0
  7  2  1  0  0  0  0
  8  9  1  0  0  0  0
  9  4  1  0  0  0  0
 10  8  1  0  0  0  0
 11  2  2  0  0  0  0
 11 12  1  0  0  0  0
 12 13  2  0  0  0  0
 13  5  1  0  0  0  0
 14  5  1  0  0  0  0
 15  7  1  0  0  0  0
 16  7  1  0  0  0  0
 17 10  2  0  0  0  0
 18 10  1  0  0  0  0
 19 17  1  0  0  0  0
 20 18  2  0  0  0  0
 21 20  1  0  0  0  0
 21 19  2  0  0  0  0
M  END
>  <ID>
6134261

>  <Supplier>
ChemBridge

>  <clogP>
2.800000000000000e+000

>  <RB>
4

>  <tPSA>
3.833000000000000e+001

>  <Hacc>
2

>  <Hdon>
1

>  <LogSw>
-3.658000000000000e+000

>  <Group>
3

>  <Core>
315

$$$$
6636105
 OpenBabel03312015312D

 18 19  0  0  0  0  0  0  0  0999 V2000
    7.8792   -3.1542    0.0000 S   0  0  0  0  0  0  0  0  0  0  0  0
    6.7917   -3.9375    0.0000 N   0  0  0  0  0  0  0  0  0  0  0  0
    6.5500   -3.1500    0.0000 C   0  0  0  0  0  0  0  0  0  0  0  0
    7.6167   -3.9417    0.0000 C   0  0  0  0  0  0  0  0  0  0  0  0
    7.2167   -2.6667    0.0000 C   0  0  0  0  0  0  0  0  0  0  0  0
    5.7667   -2.8875    0.0000 C   0  0  0  0  0  0  0  0  0  0  0  0
    5.1500   -3.4375    0.0000 C   0  0  0  0  0  0  0  0  0  0  0  0
    4.3667   -3.1750    0.0000 C   0  0  0  0  0  0  0  0  0  0  0  0
    7.2167   -1.8417    0.0000 O   0  0  0  0  0  0  0  0  0  0  0  0
    8.1042   -4.6125    0.0000 S   0  0  0  0  0  0  0  0  0  0  0  0
    3.7500   -3.7167    0.0000 C   0  0  0  0  0  0  0  0  0  0  0  0
    5.3167   -4.2417    0.0000 C   0  0  0  0  0  0  0  0  0  0  0  0
    7.7625   -5.3625    0.0000 C   0  0  0  0  0  0  0  0  0  0  0  0
    2.9750   -3.4542    0.0000 C   0  0  0  0  0  0  0  0  0  0  0  0
    3.9167   -4.5167    0.0000 C   0  0  0  0  0  0  0  0  0  0  0  0
    3.3042   -5.0667    0.0000 C   0  0  0  0  0  0  0  0  0  0  0  0
    2.3542   -4.0000    0.0000 C   0  0  0  0  0  0  0  0  0  0  0  0
    2.5167   -4.8042    0.0000 C   0  0  0  0  0  0  0  0  0  0  0  0
  2  4  2  0  0  0  0
  2  3  1  0  0  0  0
  3  5  1  0  0  0  0
  4  1  1  0  0  0  0
  5  1  1  0  0  0  0
  6  3  2  0  0  0  0
  7  6  1  0  0  0  0
  8  7  2  0  0  0  0
  9  5  2  0  0  0  0
 10  4  1  0  0  0  0
 11  8  1  0  0  0  0
 12  7  1  0  0  0  0
 13 10  1  0  0  0  0
 14 11  2  0  0  0  0
 15 11  1  0  0  0  0
 16 15  2  0  0  0  0
 17 14  1  0  0  0  0
 18 16  1  0  0  0  0
 18 17  2  0  0  0  0
M  END
>  <ID>
6636105

>  <Supplier>
ChemBridge

>  <clogP>
3.980000000000000e+000

>  <RB>
2

>  <tPSA>
2.943000000000000e+001

>  <Hacc>
2

>  <Hdon>
0

>  <LogSw>
-4.608000000000000e+000

>  <Group>
2

>  <Core>
049

$$$$
6636103
 OpenBabel03312015312D

 19 20  0  0  0  0  0  0  0  0999 V2000
    5.0500   -0.2292    0.0000 N   0  0  0  0  0  0  0  0  0  0  0  0
    5.7417   -0.6417    0.0000 C   0  0  0  0  0  0  0  0  0  0  0  0
    4.2667   -0.6750    0.0000 C   0  0  0  0  0  0  0  0  0  0  0  0
    4.2625   -1.5667    0.0000 O   0  0  0  0  0  0  0  0  0  0  0  0
    6.4542   -0.2375    0.0000 C   0  0  0  0  0  0  0  0  0  0  0  0
    1.4167   -0.6417    0.0000 C   0  0  0  0  0  0  0  0  0  0  0  0
    3.5667   -0.2542    0.0000 C   0  0  0  0  0  0  0  0  0  0  0  0
    2.8500   -0.6542    0.0000 C   0  0  0  0  0  0  0  0  0  0  0  0
    5.7417   -1.4542    0.0000 C   0  0  0  0  0  0  0  0  0  0  0  0
    6.4667    0.5750    0.0000 C   0  0  0  0  0  0  0  0  0  0  0  0
    7.1625   -0.6542    0.0000 C   0  0  0  0  0  0  0  0  0  0  0  0
    2.1417   -0.2375    0.0000 C   0  0  0  0  0  0  0  0  0  0  0  0
    0.7125   -0.2125    0.0000 C   0  0  0  0  0  0  0  0  0  0  0  0
    1.4125   -1.4542    0.0000 C   0  0  0  0  0  0  0  0  0  0  0  0
    6.4417   -1.8667    0.0000 C   0  0  0  0  0  0  0  0  0  0  0  0
    7.1542   -1.4667    0.0000 C   0  0  0  0  0  0  0  0  0  0  0  0
    0.6917   -1.8625    0.0000 C   0  0  0  0  0  0  0  0  0  0  0  0
   -0.0083   -0.6167    0.0000 C   0  0  0  0  0  0  0  0  0  0  0  0
   -0.0208   -1.4417    0.0000 C   0  0  0  0  0  0  0  0  0  0  0  0
  2  1  1  0  0  0  0
  3  1  1  0  0  0  0
  4  3  2  0  0  0  0
  5  2  1  0  0  0  0
  6 12  1  0  0  0  0
  7  3  1  0  0  0  0
  8  7  1  0  0  0  0
  9  2  2  0  0  0  0
 10  5  1  0  0  0  0
 11  5  2  0  0  0  0
 11 16  1  0  0  0  0
 12  8  1  0  0  0  0
 13  6  2  0  0  0  0
 14  6  1  0  0  0  0
 15  9  1  0  0  0  0
 16 15  2  0  0  0  0
 17 14  2  0  0  0  0
 18 13  1  0  0  0  0
 19 17  1  0  0  0  0
 19 18  2  0  0  0  0
M  END
>  <ID>
6636103

>  <Supplier>
ChemBridge

>  <clogP>
3.480000000000000e+000

>  <RB>
5

>  <tPSA>
2.910000000000000e+001

>  <Hacc>
1

>  <Hdon>
1

>  <LogSw>
-4.020000000000000e+000

>  <Group>
3

$$$$
6636101
 OpenBabel03312015312D

 16 17  0  0  0  0  0  0  0  0999 V2000
    5.5167   -2.5917    0.0000 C   0  0  0  0  0  0  0  0  0  0  0  0
    7.0667   -2.6042    0.0000 C   0  0  0  0  0  0  0  0  0  0  0  0
    6.2917   -2.1542    0.0000 N   0  0  0  0  0  0  0  0  0  0  0  0
    4.8167   -2.1917    0.0000 C   0  0  0  0  0  0  0  0  0  0  0  0
    7.1542   -3.5000    0.0000 N   0  0  0  0  0  0  0  0  0  0  0  0
    7.8917   -2.2417    0.0000 N   0  0  0  0  0  0  0  0  0  0  0  0
    8.4875   -2.9167    0.0000 N   0  0  0  0  0  0  0  0  0  0  0  0
    4.1125   -2.5917    0.0000 C   0  0  0  0  0  0  0  0  0  0  0  0
    8.0292   -3.6917    0.0000 C   0  0  0  0  0  0  0  0  0  0  0  0
    4.8167   -1.3792    0.0000 C   0  0  0  0  0  0  0  0  0  0  0  0
    5.5042   -3.4917    0.0000 O   0  0  0  0  0  0  0  0  0  0  0  0
    3.4042   -2.1792    0.0000 C   0  0  0  0  0  0  0  0  0  0  0  0
    4.1042   -3.4125    0.0000 Cl  0  0  0  0  0  0  0  0  0  0  0  0
    4.1167   -0.9667    0.0000 C   0  0  0  0  0  0  0  0  0  0  0  0
    3.4125   -1.3667    0.0000 C   0  0  0  0  0  0  0  0  0  0  0  0
    2.7042   -0.9542    0.0000 C   0  0  0  0  0  0  0  0  0  0  0  0
  2  3  1  0  0  0  0
  3  1  1  0  0  0  0
  4  1  1  0  0  0  0
  5  2  1  0  0  0  0
  6  2  2  0  0  0  0
  7  6  1  0  0  0  0
  7  9  2  0  0  0  0
  8  4  1  0  0  0  0
  9  5  1  0  0  0  0
 10  4  2  0  0  0  0
 11  1  2  0  0  0  0
 12  8  2  0  0  0  0
 13  8  1  0  0  0  0
 14 10  1  0  0  0  0
 15 14  2  0  0  0  0
 15 12  1  0  0  0  0
 16 15  1  0  0  0  0
M  END
>  <ID>
6636101

>  <Supplier>
ChemBridge

>  <clogP>
1.010000000000000e+000

>  <RB>
2

>  <tPSA>
7.066999999999999e+001

>  <Hacc>
3

>  <Hdon>
2

>  <LogSw>
-1.789000000000000e+000

>  <Group>
3

$$$$
7978052
 OpenBabel03312015312D

 30 33  0  0  0  0  0  0  0  0999 V2000
    4.8792    2.4833    0.0000 C   0  0  0  0  0  0  0  0  0  0  0  0
    4.8792    1.7333    0.0000 N   0  0  0  0  0  0  0  0  0  0  0  0
    5.5292    1.3583    0.0000 C   0  0  0  0  0  0  0  0  0  0  0  0
    4.1667    2.7208    0.0000 C   0  0  0  0  0  0  0  0  0  0  0  0
    5.5292    2.8583    0.0000 N   0  0  0  0  0  0  0  0  0  0  0  0
    4.1667    1.5083    0.0000 N   0  0  0  0  0  0  0  0  0  0  0  0
    6.1792    1.7333    0.0000 C   0  0  0  0  0  0  0  0  0  0  0  0
    2.9667    4.2917    0.0000 C   0  0  0  0  0  0  0  0  0  0  0  0
    3.9375    3.4333    0.0000 C   0  0  0  0  0  0  0  0  0  0  0  0
    6.1792    2.4833    0.0000 C   0  0  0  0  0  0  0  0  0  0  0  0
    3.4125    4.9042    0.0000 C   0  0  0  0  0  0  0  0  0  0  0  0
    2.2542    5.2792    0.0000 N   0  0  0  0  0  0  0  0  0  0  0  0
    2.9667    5.5042    0.0000 N   0  0  0  0  0  0  0  0  0  0  0  0
    3.7292    2.1083    0.0000 C   0  0  0  0  0  0  0  0  0  0  0  0
    3.2042    3.5875    0.0000 N   0  0  0  0  0  0  0  0  0  0  0  0
    2.2542    4.5292    0.0000 C   0  0  0  0  0  0  0  0  0  0  0  0
    5.5292    0.6083    0.0000 C   0  0  0  0  0  0  0  0  0  0  0  0
    6.8292    2.8583    0.0000 C   0  0  0  0  0  0  0  0  0  0  0  0
    4.4417    3.9875    0.0000 O   0  0  0  0  0  0  0  0  0  0  0  0
    7.4792    2.4833    0.0000 C   0  0  0  0  0  0  0  0  0  0  0  0
    6.8292    3.6083    0.0000 C   0  0  0  0  0  0  0  0  0  0  0  0
    6.1792    0.2333    0.0000 F   0  0  0  0  0  0  0  0  0  0  0  0
    4.8792    0.2333    0.0000 F   0  0  0  0  0  0  0  0  0  0  0  0
    8.1292    3.6083    0.0000 C   0  0  0  0  0  0  0  0  0  0  0  0
    4.1625    4.9042    0.0000 C   0  0  0  0  0  0  0  0  0  0  0  0
    8.1292    2.8583    0.0000 C   0  0  0  0  0  0  0  0  0  0  0  0
    7.4792    3.9833    0.0000 C   0  0  0  0  0  0  0  0  0  0  0  0
    3.2042    6.2167    0.0000 C   0  0  0  0  0  0  0  0  0  0  0  0
    8.7792    3.9833    0.0000 O   0  0  0  0  0  0  0  0  0  0  0  0
    8.7792    4.7292    0.0000 C   0  0  0  0  0  0  0  0  0  0  0  0
  2  1  1  0  0  0  0
  3  2  1  0  0  0  0
  3  7  2  0  0  0  0
  4  1  2  0  0  0  0
  5  1  1  0  0  0  0
  6  2  1  0  0  0  0
  6 14  2  0  0  0  0
  7 10  1  0  0  0  0
  8 15  1  0  0  0  0
  9  4  1  0  0  0  0
 10  5  2  0  0  0  0
 11  8  2  0  0  0  0
 12 16  2  0  0  0  0
 13 11  1  0  0  0  0
 13 12  1  0  0  0  0
 14  4  1  0  0  0  0
 15  9  1  0  0  0  0
 16  8  1  0  0  0  0
 17  3  1  0  0  0  0
 18 10  1  0  0  0  0
 19  9  2  0  0  0  0
 20 18  2  0  0  0  0
 21 18  1  0  0  0  0
 22 17  1  0  0  0  0
 23 17  1  0  0  0  0
 24 27  1  0  0  0  0
 25 11  1  0  0  0  0
 26 20  1  0  0  0  0
 26 24  2  0  0  0  0
 27 21  2  0  0  0  0
 28 13  1  0  0  0  0
 29 24  1  0  0  0  0
 30 29  1  0  0  0  0
M  END
>  <ID>
7978052

>  <Supplier>
ChemBridge

>  <clogP>
2.039000000000000e+000

>  <RB>
3

>  <tPSA>
8.633999999999999e+001

>  <Hacc>
5

>  <Hdon>
1

>  <LogSw>
-3.948000000000000e+000

>  <Group>
2

>  <Core>
055

$$$$
6900394
 OpenBabel03312015312D

 39 42  0  0  0  0  0  0  0  0999 V2000
    1.1292   -1.4042    0.0000 C   0  0  0  0  0  0  0  0  0  0  0  0
    1.8042   -0.7292    0.0000 N   0  0  0  0  0  0  0  0  0  0  0  0
    0.8625   -0.8750    0.0000 C   0  0  0  0  0  0  0  0  0  0  0  0
    1.7042   -1.3125    0.0000 C   0  0  3  0  0  0  0  0  0  0  0  0
    1.2750   -0.4625    0.0000 C   0  0  0  0  0  0  0  0  0  0  0  0
    0.7750   -1.8042    0.0000 C   0  0  0  0  0  0  0  0  0  0  0  0
    2.1250   -1.7167    0.0000 C   0  0  0  0  0  0  0  0  0  0  0  0
    0.2667   -1.9667    0.0000 C   0  0  0  0  0  0  0  0  0  0  0  0
    2.9417   -2.5417    0.0000 C   0  0  0  0  0  0  0  0  0  0  0  0
    3.0917   -1.9750    0.0000 C   0  0  0  0  0  0  0  0  0  0  0  0
    2.3792   -2.6917    0.0000 C   0  0  0  0  0  0  0  0  0  0  0  0
    0.0042   -2.4917    0.0000 C   0  0  0  0  0  0  0  0  0  0  0  0
    1.9667   -2.2792    0.0000 C   0  0  0  0  0  0  0  0  0  0  0  0
    2.6792   -1.5667    0.0000 C   0  0  0  0  0  0  0  0  0  0  0  0
   -0.0458   -1.4667    0.0000 C   0  0  0  0  0  0  0  0  0  0  0  0
    1.1792    0.1208    0.0000 O   0  0  0  0  0  0  0  0  0  0  0  0
    1.8792    1.0125    0.0000 N   0  0  0  0  0  0  0  0  0  0  0  0
    1.0625   -2.2500    0.0000 O   0  0  0  0  0  0  0  0  0  0  0  0
   -0.5833   -2.5167    0.0000 C   0  0  0  0  0  0  0  0  0  0  0  0
    0.2792   -0.7792    0.0000 O   0  0  0  0  0  0  0  0  0  0  0  0
    2.3125   -0.4625    0.0000 C   0  0  0  0  0  0  0  0  0  0  0  0
    1.9417    2.1708    0.0000 O   0  0  0  0  0  0  0  0  0  0  0  0
    2.3417    0.1208    0.0000 C   0  0  0  0  0  0  0  0  0  0  0  0
   -0.9125   -2.0292    0.0000 C   0  0  0  0  0  0  0  0  0  0  0  0
    3.3667   -2.9625    0.0000 O   0  0  0  0  0  0  0  0  0  0  0  0
   -0.6333   -1.4917    0.0000 C   0  0  0  0  0  0  0  0  0  0  0  0
    2.2292   -3.2667    0.0000 O   0  0  0  0  0  0  0  0  0  0  0  0
    3.6667   -1.8167    0.0000 O   0  0  0  0  0  0  0  0  0  0  0  0
    1.8542    0.4333    0.0000 C   0  0  0  0  0  0  0  0  0  0  0  0
   -1.5000   -2.0542    0.0000 O   0  0  0  0  0  0  0  0  0  0  0  0
    2.4000    1.2708    0.0000 C   0  0  0  0  0  0  0  0  0  0  0  0
    1.3917    1.3208    0.0000 C   0  0  0  0  0  0  0  0  0  0  0  0
    0.3250   -2.9875    0.0000 C   0  0  0  0  0  0  0  0  0  0  0  0
    2.4292    1.8500    0.0000 C   0  0  0  0  0  0  0  0  0  0  0  0
    1.4250    1.9083    0.0000 C   0  0  0  0  0  0  0  0  0  0  0  0
    3.2125   -3.5292    0.0000 C   0  0  0  0  0  0  0  0  0  0  0  0
    4.0875   -2.2375    0.0000 C   0  0  0  0  0  0  0  0  0  0  0  0
    1.6542   -3.4167    0.0000 C   0  0  0  0  0  0  0  0  0  0  0  0
   -1.7708   -2.5750    0.0000 C   0  0  0  0  0  0  0  0  0  0  0  0
  2  4  1  0  0  0  0
  3  1  2  0  0  0  0
  4  1  1  0  0  0  0
  5  3  1  0  0  0  0
  5  2  1  0  0  0  0
  6  1  1  0  0  0  0
  7  4  1  0  0  0  0
  8  6  1  0  0  0  0
  9 10  1  0  0  0  0
  9 11  2  0  0  0  0
 10 14  2  0  0  0  0
 11 13  1  0  0  0  0
 12  8  2  0  0  0  0
 13  7  2  0  0  0  0
 14  7  1  0  0  0  0
 15  8  1  0  0  0  0
 16  5  2  0  0  0  0
 17 29  1  0  0  0  0
 18  6  2  0  0  0  0
 19 12  1  0  0  0  0
 20  3  1  0  0  0  0
 21  2  1  0  0  0  0
 22 35  1  0  0  0  0
 22 34  1  0  0  0  0
 23 21  1  0  0  0  0
 24 26  1  0  0  0  0
 24 19  2  0  0  0  0
 25  9  1  0  0  0  0
 26 15  2  0  0  0  0
 27 11  1  0  0  0  0
 28 10  1  0  0  0  0
 29 23  1  0  0  0  0
 30 24  1  0  0  0  0
 31 17  1  0  0  0  0
 32 17  1  0  0  0  0
 33 12  1  0  0  0  0
 34 31  1  0  0  0  0
 35 32  1  0  0  0  0
 36 25  1  0  0  0  0
 37 28  1  0  0  0  0
 38 27  1  0  0  0  0
 39 30  1  0  0  0  0
M  END
>  <ID>
6900394

>  <Supplier>
ChemBridge

>  <clogP>
3.630000000000000e+000

>  <RB>
7

>  <tPSA>
1.070000000000000e+002

>  <Hacc>
9

>  <Hdon>
1

>  <LogSw>
-6.240000000000000e+000

>  <Group>
1

>  <Core>
095

$$$$
5713902
 OpenBabel03312015312D

 26 27  0  0  0  0  0  0  0  0999 V2000
    1.8167   -1.7542    0.0000 C   0  0  0  0  0  0  0  0  0  0  0  0
    1.8167   -2.5875    0.0000 C   0  0  0  0  0  0  0  0  0  0  0  0
    1.1000   -1.3500    0.0000 C   0  0  3  0  0  0  0  0  0  0  0  0
    0.3875   -2.5875    0.0000 C   0  0  0  0  0  0  0  0  0  0  0  0
    1.1000   -3.0000    0.0000 N   0  0  0  0  0  0  0  0  0  0  0  0
    0.3875   -1.7542    0.0000 N   0  0  0  0  0  0  0  0  0  0  0  0
   -0.3208   -0.5167    0.0000 N   0  3  0  0  0  0  0  0  0  0  0  0
    1.1000   -0.5167    0.0000 C   0  0  0  0  0  0  0  0  0  0  0  0
    0.3792   -0.1042    0.0000 C   0  0  0  0  0  0  0  0  0  0  0  0
    2.5292   -1.3500    0.0000 C   0  0  0  0  0  0  0  0  0  0  0  0
   -1.0458   -0.1042    0.0000 O   0  5  0  0  0  0  0  0  0  0  0  0
   -0.3208   -3.0042    0.0000 O   0  0  0  0  0  0  0  0  0  0  0  0
   -0.3208   -1.3500    0.0000 O   0  0  0  0  0  0  0  0  0  0  0  0
    2.5292   -0.5167    0.0000 O   0  0  0  0  0  0  0  0  0  0  0  0
    2.5292   -3.0000    0.0000 C   0  0  0  0  0  0  0  0  0  0  0  0
    1.1000   -3.8167    0.0000 C   0  0  0  0  0  0  0  0  0  0  0  0
    3.2500   -1.7542    0.0000 O   0  0  0  0  0  0  0  0  0  0  0  0
    1.8042   -0.1042    0.0000 C   0  0  0  0  0  0  0  0  0  0  0  0
    0.3792    0.7000    0.0000 C   0  0  0  0  0  0  0  0  0  0  0  0
    5.4000   -1.3500    0.0000 O   0  0  0  0  0  0  0  0  0  0  0  0
    3.9667   -1.3500    0.0000 C   0  0  0  0  0  0  0  0  0  0  0  0
    4.6792   -1.7542    0.0000 C   0  0  0  0  0  0  0  0  0  0  0  0
    6.1042   -1.7542    0.0000 C   0  0  0  0  0  0  0  0  0  0  0  0
    0.3875   -4.2292    0.0000 C   0  0  0  0  0  0  0  0  0  0  0  0
    1.8042    0.7000    0.0000 C   0  0  0  0  0  0  0  0  0  0  0  0
    1.1000    1.1208    0.0000 C   0  0  0  0  0  0  0  0  0  0  0  0
  2  1  2  0  0  0  0
  3  1  1  0  0  0  0
  4  6  1  0  0  0  0
  4  5  1  0  0  0  0
  5  2  1  0  0  0  0
  6  3  1  0  0  0  0
  7  9  1  0  0  0  0
  8  3  1  0  0  0  0
  9  8  2  0  0  0  0
 10  1  1  0  0  0  0
 11  7  1  0  0  0  0
 12  4  2  0  0  0  0
 13  7  2  0  0  0  0
 14 10  2  0  0  0  0
 15  2  1  0  0  0  0
 16  5  1  0  0  0  0
 17 10  1  0  0  0  0
 18  8  1  0  0  0  0
 19  9  1  0  0  0  0
 19 26  2  0  0  0  0
 20 22  1  0  0  0  0
 21 17  1  0  0  0  0
 22 21  1  0  0  0  0
 23 20  1  0  0  0  0
 24 16  1  0  0  0  0
 25 18  2  0  0  0  0
 26 25  1  0  0  0  0
M  CHG  2   7   1  11  -1
M  END
>  <ID>
5713902

>  <Supplier>
ChemBridge

>  <clogP>
4.290000000000000e+000

>  <RB>
5

>  <tPSA>
1.110100000000000e+002

>  <Hacc>
6

>  <Hdon>
1

>  <LogSw>
-5.903000000000001e+000

>  <Group>
1

>  <Core>
072

$$$$
6134263
 OpenBabel03312015312D

 23 26  0  0  0  0  0  0  0  0999 V2000
    6.0917   -3.7542    0.0000 N   0  0  0  0  0  0  0  0  0  0  0  0
    5.4417   -3.3750    0.0000 C   0  0  0  0  0  0  0  0  0  0  0  0
    6.0917   -4.5042    0.0000 C   0  0  0  0  0  0  0  0  0  0  0  0
    5.4417   -4.8792    0.0000 N   0  0  0  0  0  0  0  0  0  0  0  0
    4.7917   -3.7542    0.0000 C   0  0  0  0  0  0  0  0  0  0  0  0
    6.7417   -3.3792    0.0000 C   0  0  0  0  0  0  0  0  0  0  0  0
    4.7917   -4.5042    0.0000 C   0  0  0  0  0  0  0  0  0  0  0  0
    6.7417   -2.6292    0.0000 C   0  0  0  0  0  0  0  0  0  0  0  0
    5.4417   -2.6250    0.0000 O   0  0  0  0  0  0  0  0  0  0  0  0
    7.3917   -2.2542    0.0000 C   0  0  0  0  0  0  0  0  0  0  0  0
    7.3917   -3.7542    0.0000 C   0  0  0  0  0  0  0  0  0  0  0  0
    8.0417   -3.3792    0.0000 C   0  0  0  0  0  0  0  0  0  0  0  0
    8.0417   -2.6292    0.0000 C   0  0  0  0  0  0  0  0  0  0  0  0
    6.7417   -4.8792    0.0000 C   0  0  0  0  0  0  0  0  0  0  0  0
    4.1417   -3.3750    0.0000 C   0  0  0  0  0  0  0  0  0  0  0  0
    4.1417   -4.8792    0.0000 C   0  0  0  0  0  0  0  0  0  0  0  0
    7.4000   -1.5042    0.0000 C   0  0  0  0  0  0  0  0  0  0  0  0
    8.6917   -2.2542    0.0000 C   0  0  0  0  0  0  0  0  0  0  0  0
    7.3917   -4.5042    0.0000 C   0  0  0  0  0  0  0  0  0  0  0  0
    3.4875   -3.7542    0.0000 C   0  0  0  0  0  0  0  0  0  0  0  0
    3.4875   -4.5042    0.0000 C   0  0  0  0  0  0  0  0  0  0  0  0
    8.0500   -1.1292    0.0000 C   0  0  0  0  0  0  0  0  0  0  0  0
    8.6917   -1.5042    0.0000 C   0  0  0  0  0  0  0  0  0  0  0  0
  2  1  1  0  0  0  0
  3  1  1  0  0  0  0
  4  3  2  0  0  0  0
  5  2  1  0  0  0  0
  6  1  1  0  0  0  0
  7  4  1  0  0  0  0
  7  5  2  0  0  0  0
  8  6  2  0  0  0  0
  9  2  2  0  0  0  0
 10  8  1  0  0  0  0
 10 13  1  0  0  0  0
 11  6  1  0  0  0  0
 12 11  2  0  0  0  0
 13 12  1  0  0  0  0
 14  3  1  0  0  0  0
 15  5  1  0  0  0  0
 16  7  1  0  0  0  0
 17 10  2  0  0  0  0
 18 13  2  0  0  0  0
 19 14  1  0  0  0  0
 20 15  2  0  0  0  0
 21 16  2  0  0  0  0
 21 20  1  0  0  0  0
 22 17  1  0  0  0  0
 22 23  2  0  0  0  0
 23 18  1  0  0  0  0
M  END
>  <ID>
6134263

>  <Supplier>
ChemBridge

>  <clogP>
4.130000000000000e+000

>  <RB>
1

>  <tPSA>
3.489000000000000e+001

>  <Hacc>
2

>  <Hdon>
0

>  <LogSw>
-4.918000000000000e+000

>  <Group>
2

>  <Core>
061

$$$$
5431169
 OpenBabel03312015312D

 24 28  0  0  0  0  0  0  0  0999 V2000
   -0.5958    2.2125    0.0000 C   0  0  3  0  0  0  0  0  0  0  0  0
   -1.9125    2.1458    0.0000 N   0  0  0  0  0  0  0  0  0  0  0  0
    0.7667    2.2125    0.0000 C   0  0  0  0  0  0  0  0  0  0  0  0
    0.0875    1.8125    0.0000 C   0  0  3  0  0  0  0  0  0  0  0  0
   -3.2458    2.9208    0.0000 N   0  0  0  0  0  0  0  0  0  0  0  0
   -5.9333    2.9208    0.0000 C   0  0  0  0  0  0  0  0  0  0  0  0
    0.7667    3.0000    0.0000 C   0  0  0  0  0  0  0  0  0  0  0  0
   -1.2208    1.7500    0.0000 C   0  0  0  0  0  0  0  0  0  0  0  0
   -5.9333    2.1458    0.0000 C   0  0  0  0  0  0  0  0  0  0  0  0
   -6.6500    3.1500    0.0000 O   0  0  0  0  0  0  0  0  0  0  0  0
   -6.6542    1.9000    0.0000 O   0  0  0  0  0  0  0  0  0  0  0  0
    0.0875    3.3958    0.0000 C   0  0  3  0  0  0  0  0  0  0  0  0
   -7.1042    2.5500    0.0000 C   0  0  0  0  0  0  0  0  0  0  0  0
   -0.5958    2.9958    0.0000 C   0  0  0  0  0  0  0  0  0  0  0  0
   -5.2500    3.3125    0.0000 C   0  0  0  0  0  0  0  0  0  0  0  0
    0.4792    2.5833    0.0000 C   0  0  0  0  0  0  0  0  0  0  0  0
   -4.6000    2.9208    0.0000 C   0  0  0  0  0  0  0  0  0  0  0  0
   -3.9208    3.3125    0.0000 C   0  0  0  0  0  0  0  0  0  0  0  0
   -5.2500    1.7500    0.0000 C   0  0  0  0  0  0  0  0  0  0  0  0
   -2.5958    1.7500    0.0000 C   0  0  0  0  0  0  0  0  0  0  0  0
   -1.9125    2.9208    0.0000 C   0  0  0  0  0  0  0  0  0  0  0  0
   -2.5958    3.3125    0.0000 C   0  0  0  0  0  0  0  0  0  0  0  0
   -3.2458    2.1458    0.0000 C   0  0  0  0  0  0  0  0  0  0  0  0
   -4.6000    2.1458    0.0000 C   0  0  0  0  0  0  0  0  0  0  0  0
  2  8  1  0  0  0  0
  3  4  1  0  0  0  0
  3  7  2  0  0  0  0
  4  1  1  0  0  0  0
  5 22  1  0  0  0  0
  6 15  1  0  0  0  0
  6  9  2  0  0  0  0
  7 12  1  0  0  0  0
  8  1  1  0  0  0  0
  9 19  1  0  0  0  0
 10  6  1  0  0  0  0
 11  9  1  0  0  0  0
 12 14  1  0  0  0  0
 12 16  1  0  0  0  0
 13 10  1  0  0  0  0
 13 11  1  0  0  0  0
 14  1  1  0  0  0  0
 15 17  2  0  0  0  0
 16  4  1  0  0  0  0
 17 18  1  0  0  0  0
 18  5  1  0  0  0  0
 19 24  2  0  0  0  0
 20  2  1  0  0  0  0
 21  2  1  0  0  0  0
 22 21  1  0  0  0  0
 23 20  1  0  0  0  0
 23  5  1  0  0  0  0
 24 17  1  0  0  0  0
M  END
>  <ID>
5431169

>  <Supplier>
ChemBridge

>  <clogP>
3.810000000000000e+000

>  <RB>
4

>  <tPSA>
2.494000000000000e+001

>  <Hacc>
4

>  <Hdon>
0

>  <LogSw>
-3.826000000000000e+000

>  <Group>
2

>  <Core>
164

$$$$
6704561
 OpenBabel03312015312D

 30 33  0  0  0  0  0  0  0  0999 V2000
   -1.8958   -0.7042    0.0000 C   0  0  0  0  0  0  0  0  0  0  0  0
   -1.3333   -0.0292    0.0000 C   0  0  0  0  0  0  0  0  0  0  0  0
   -2.2500   -1.0667    0.0000 C   0  0  0  0  0  0  0  0  0  0  0  0
   -2.0333   -1.5042    0.0000 N   0  0  0  0  0  0  0  0  0  0  0  0
   -1.8125   -0.2042    0.0000 C   0  0  3  0  0  0  0  0  0  0  0  0
   -1.5500   -1.4500    0.0000 N   0  0  0  0  0  0  0  0  0  0  0  0
   -1.4500   -0.9667    0.0000 C   0  0  0  0  0  0  0  0  0  0  0  0
   -1.2500    0.4958    0.0000 C   0  0  0  0  0  0  0  0  0  0  0  0
   -0.9125   -0.3292    0.0000 C   0  0  0  0  0  0  0  0  0  0  0  0
   -2.1125    0.6125    0.0000 C   0  0  0  0  0  0  0  0  0  0  0  0
   -1.6500    0.7958    0.0000 N   0  0  0  0  0  0  0  0  0  0  0  0
   -2.2125    0.1125    0.0000 N   0  0  0  0  0  0  0  0  0  0  0  0
   -2.7500   -1.0292    0.0000 C   0  0  0  0  0  0  0  0  0  0  0  0
   -0.4500   -0.1292    0.0000 O   0  0  0  0  0  0  0  0  0  0  0  0
   -3.1958   -1.2875    0.0000 S   0  0  0  0  0  0  0  0  0  0  0  0
   -0.9708   -0.8292    0.0000 O   0  0  0  0  0  0  0  0  0  0  0  0
   -1.2333   -1.8500    0.0000 C   0  0  0  0  0  0  0  0  0  0  0  0
   -2.5125    0.9333    0.0000 O   0  0  0  0  0  0  0  0  0  0  0  0
   -2.8708   -0.5292    0.0000 C   0  0  0  0  0  0  0  0  0  0  0  0
   -3.5708   -0.9500    0.0000 C   0  0  0  0  0  0  0  0  0  0  0  0
   -3.3708   -0.4875    0.0000 C   0  0  0  0  0  0  0  0  0  0  0  0
   -0.7708    0.6958    0.0000 C   0  0  0  0  0  0  0  0  0  0  0  0
   -0.0125   -0.4042    0.0000 C   0  0  0  0  0  0  0  0  0  0  0  0
   -1.4333   -2.3292    0.0000 C   0  0  0  0  0  0  0  0  0  0  0  0
   -0.7333   -1.7875    0.0000 C   0  0  0  0  0  0  0  0  0  0  0  0
    0.4500   -0.1875    0.0000 C   0  0  0  0  0  0  0  0  0  0  0  0
   -0.0500   -0.9042    0.0000 C   0  0  0  0  0  0  0  0  0  0  0  0
   -0.4333   -2.2042    0.0000 C   0  0  0  0  0  0  0  0  0  0  0  0
   -1.1333   -2.7292    0.0000 C   0  0  0  0  0  0  0  0  0  0  0  0
   -0.6333   -2.6500    0.0000 C   0  0  0  0  0  0  0  0  0  0  0  0
  2  5  1  0  0  0  0
  3  1  1  0  0  0  0
  4  3  2  0  0  0  0
  4  6  1  0  0  0  0
  5  1  1  0  0  0  0
  6  7  1  0  0  0  0
  7  1  2  0  0  0  0
  8  2  2  0  0  0  0
  8 11  1  0  0  0  0
  9  2  1  0  0  0  0
 10 12  1  0  0  0  0
 11 10  1  0  0  0  0
 12  5  1  0  0  0  0
 13  3  1  0  0  0  0
 14  9  1  0  0  0  0
 15 13  1  0  0  0  0
 16  9  2  0  0  0  0
 17  6  1  0  0  0  0
 18 10  2  0  0  0  0
 19 13  2  0  0  0  0
 20 15  1  0  0  0  0
 21 19  1  0  0  0  0
 21 20  2  0  0  0  0
 22  8  1  0  0  0  0
 23 14  1  0  0  0  0
 24 17  2  0  0  0  0
 25 17  1  0  0  0  0
 26 23  1  0  0  0  0
 27 23  1  0  0  0  0
 28 25  2  0  0  0  0
 29 24  1  0  0  0  0
 30 28  1  0  0  0  0
 30 29  2  0  0  0  0
M  END
>  <ID>
6704561

>  <Supplier>
ChemBridge

>  <clogP>
4.690000000000000e+000

>  <RB>
5

>  <tPSA>
8.525000000000000e+001

>  <Hacc>
5

>  <Hdon>
2

>  <LogSw>
-6.285000000000000e+000

>  <Group>
3

>  <Core>
072

$$$$
6134262
 OpenBabel03312015312D

 22 24  0  0  0  0  0  0  0  0999 V2000
    3.4792   -0.2167    0.0000 C   0  0  0  0  0  0  0  0  0  0  0  0
    4.1917    0.1875    0.0000 N   0  0  0  0  0  0  0  0  0  0  0  0
    0.2292    0.1958    0.0000 C   0  0  0  0  0  0  0  0  0  0  0  0
    4.8375   -0.1875    0.0000 C   0  0  0  0  0  0  0  0  0  0  0  0
    5.4917    0.1833    0.0000 C   0  0  0  0  0  0  0  0  0  0  0  0
    0.8792   -0.1917    0.0000 C   0  0  0  0  0  0  0  0  0  0  0  0
    3.4667   -1.0417    0.0000 O   0  0  0  0  0  0  0  0  0  0  0  0
    0.2417    0.9458    0.0000 C   0  0  0  0  0  0  0  0  0  0  0  0
    0.8917    1.3083    0.0000 C   0  0  0  0  0  0  0  0  0  0  0  0
    1.5292    0.1750    0.0000 C   0  0  0  0  0  0  0  0  0  0  0  0
    2.1792   -0.2042    0.0000 O   0  0  0  0  0  0  0  0  0  0  0  0
    2.8292    0.1625    0.0000 C   0  0  0  0  0  0  0  0  0  0  0  0
    6.1417   -0.1917    0.0000 C   0  0  0  0  0  0  0  0  0  0  0  0
    1.5417    0.9250    0.0000 C   0  0  0  0  0  0  0  0  0  0  0  0
    6.7917    0.1750    0.0000 I   0  0  0  0  0  0  0  0  0  0  0  0
    5.4792   -1.3167    0.0000 C   0  0  0  0  0  0  0  0  0  0  0  0
    4.8375   -0.9375    0.0000 C   0  0  0  0  0  0  0  0  0  0  0  0
   -0.4208   -0.1792    0.0000 C   0  0  0  0  0  0  0  0  0  0  0  0
    6.1292   -0.9417    0.0000 C   0  0  0  0  0  0  0  0  0  0  0  0
   -0.4083    1.3208    0.0000 C   0  0  0  0  0  0  0  0  0  0  0  0
   -1.0708    0.2083    0.0000 C   0  0  0  0  0  0  0  0  0  0  0  0
   -1.0583    0.9583    0.0000 C   0  0  0  0  0  0  0  0  0  0  0  0
  2  1  1  0  0  0  0
  3  6  1  0  0  0  0
  4  2  1  0  0  0  0
  5  4  1  0  0  0  0
  6 10  2  0  0  0  0
  7  1  2  0  0  0  0
  8  9  1  0  0  0  0
  8  3  1  0  0  0  0
  9 14  2  0  0  0  0
 10 11  1  0  0  0  0
 11 12  1  0  0  0  0
 12  1  1  0  0  0  0
 13  5  2  0  0  0  0
 13 19  1  0  0  0  0
 14 10  1  0  0  0  0
 15 13  1  0  0  0  0
 16 17  1  0  0  0  0
 17  4  2  0  0  0  0
 18  3  2  0  0  0  0
 19 16  2  0  0  0  0
 20  8  2  0  0  0  0
 21 18  1  0  0  0  0
 22 20  1  0  0  0  0
 22 21  2  0  0  0  0
M  END
>  <ID>
6134262

>  <Supplier>
ChemBridge

>  <clogP>
5.230000000000000e+000

>  <RB>
4

>  <tPSA>
3.833000000000000e+001

>  <Hacc>
2

>  <Hdon>
1

>  <LogSw>
-6.606000000000000e+000

>  <Group>
3

>  <Core>
315

$$$$
7850181
 OpenBabel03312015312D

 18 19  0  0  0  0  0  0  0  0999 V2000
    2.3167    0.7708    0.0000 C   0  0  0  0  0  0  0  0  0  0  0  0
    5.6042    0.4625    0.0000 S   0  0  0  0  0  0  0  0  0  0  0  0
    4.9167    0.7708    0.0000 C   0  0  0  0  0  0  0  0  0  0  0  0
    2.3167    1.5208    0.0000 C   0  0  0  0  0  0  0  0  0  0  0  0
    1.6750    0.3958    0.0000 C   0  0  0  0  0  0  0  0  0  0  0  0
    6.1042    1.0208    0.0000 C   0  0  0  0  0  0  0  0  0  0  0  0
    5.0000    1.5125    0.0000 C   0  0  0  0  0  0  0  0  0  0  0  0
    5.7292    1.6708    0.0000 C   0  0  0  0  0  0  0  0  0  0  0  0
    1.6750    1.8958    0.0000 C   0  0  0  0  0  0  0  0  0  0  0  0
    3.6250    0.7708    0.0000 N   0  0  0  0  0  0  0  0  0  0  0  0
    1.0250    0.7708    0.0000 C   0  0  0  0  0  0  0  0  0  0  0  0
    2.9750    0.3958    0.0000 C   0  0  0  0  0  0  0  0  0  0  0  0
    1.0250    1.5208    0.0000 C   0  0  0  0  0  0  0  0  0  0  0  0
    0.3750    0.3958    0.0000 Br  0  0  0  0  0  0  0  0  0  0  0  0
    2.9750    1.8958    0.0000 O   0  0  0  0  0  0  0  0  0  0  0  0
    4.2750    0.3958    0.0000 C   0  0  0  0  0  0  0  0  0  0  0  0
    2.9750    2.6458    0.0000 C   0  0  0  0  0  0  0  0  0  0  0  0
    3.6250    1.5208    0.0000 H   0  0  0  0  0  0  0  0  0  0  0  0
  2  3  1  0  0  0  0
  3 16  1  0  0  0  0
  4  1  1  0  0  0  0
  5  1  2  0  0  0  0
  6  2  1  0  0  0  0
  7  3  2  0  0  0  0
  8  7  1  0  0  0  0
  8  6  2  0  0  0  0
  9  4  2  0  0  0  0
  9 13  1  0  0  0  0
 10 12  1  0  0  0  0
 11  5  1  0  0  0  0
 12  1  1  0  0  0  0
 13 11  2  0  0  0  0
 14 11  1  0  0  0  0
 15  4  1  0  0  0  0
 16 10  1  0  0  0  0
 17 15  1  0  0  0  0
 18 10  1  0  0  0  0
M  END
>  <ID>
7850181

>  <Supplier>
ChemBridge

>  <clogP>
3.250000000000000e+000

>  <RB>
4

>  <tPSA>
2.126000000000000e+001

>  <Hacc>
2

>  <Hdon>
1

>  <LogSw>
-3.245000000000000e+000

>  <Group>
1

>  <Core>
190

$$$$
7850183
 OpenBabel03312015312D

 35 38  0  0  0  0  0  0  0  0999 V2000
    2.3417    3.1333    0.0000 N   0  0  0  0  0  0  0  0  0  0  0  0
    1.6625    3.4333    0.0000 C   0  0  0  0  0  0  0  0  0  0  0  0
    2.2667    2.3833    0.0000 C   0  0  0  0  0  0  0  0  0  0  0  0
    1.1542    2.8750    0.0000 C   0  0  3  0  0  0  0  0  0  0  0  0
    1.5292    2.2333    0.0000 C   0  0  0  0  0  0  0  0  0  0  0  0
    0.1042    3.6458    0.0000 C   0  0  0  0  0  0  0  0  0  0  0  0
    0.4125    2.9583    0.0000 N   0  0  0  0  0  0  0  0  0  0  0  0
   -0.6375    3.7208    0.0000 N   0  0  0  0  0  0  0  0  0  0  0  0
    2.9917    3.5083    0.0000 C   0  0  0  0  0  0  0  0  0  0  0  0
    1.5042    4.1542    0.0000 O   0  0  0  0  0  0  0  0  0  0  0  0
    2.8250    1.8833    0.0000 O   0  0  0  0  0  0  0  0  0  0  0  0
   -0.0250    2.3500    0.0000 C   0  0  0  0  0  0  0  0  0  0  0  0
    0.5500    4.2417    0.0000 O   0  0  0  0  0  0  0  0  0  0  0  0
    3.6417    3.1333    0.0000 C   0  0  0  0  0  0  0  0  0  0  0  0
    2.9917    4.2500    0.0000 C   0  0  0  0  0  0  0  0  0  0  0  0
   -0.9458    4.4000    0.0000 C   0  0  0  0  0  0  0  0  0  0  0  0
   -0.7750    2.4250    0.0000 C   0  0  0  0  0  0  0  0  0  0  0  0
   -1.5583    5.7667    0.0000 C   0  0  0  0  0  0  0  0  0  0  0  0
    4.2917    4.2500    0.0000 C   0  0  0  0  0  0  0  0  0  0  0  0
   -2.2708    2.5833    0.0000 C   0  0  0  0  0  0  0  0  0  0  0  0
    3.6417    4.6250    0.0000 C   0  0  0  0  0  0  0  0  0  0  0  0
    4.2917    3.5083    0.0000 C   0  0  0  0  0  0  0  0  0  0  0  0
   -1.8583    6.4542    0.0000 Cl  0  0  0  0  0  0  0  0  0  0  0  0
   -1.6875    4.4792    0.0000 C   0  0  0  0  0  0  0  0  0  0  0  0
   -0.5000    5.0042    0.0000 C   0  0  0  0  0  0  0  0  0  0  0  0
   -1.2125    1.8208    0.0000 C   0  0  0  0  0  0  0  0  0  0  0  0
   -1.0833    3.1125    0.0000 C   0  0  0  0  0  0  0  0  0  0  0  0
   -0.8083    5.6917    0.0000 C   0  0  0  0  0  0  0  0  0  0  0  0
   -1.9958    5.1542    0.0000 C   0  0  0  0  0  0  0  0  0  0  0  0
   -1.8250    3.1958    0.0000 C   0  0  0  0  0  0  0  0  0  0  0  0
   -1.9583    1.9000    0.0000 C   0  0  0  0  0  0  0  0  0  0  0  0
   -3.0125    2.6625    0.0000 O   0  0  0  0  0  0  0  0  0  0  0  0
    4.9417    4.6250    0.0000 O   0  0  0  0  0  0  0  0  0  0  0  0
   -3.4500    2.0583    0.0000 C   0  0  0  0  0  0  0  0  0  0  0  0
    5.5917    4.2500    0.0000 C   0  0  0  0  0  0  0  0  0  0  0  0
  2  1  1  0  0  0  0
  3  1  1  0  0  0  0
  4  2  1  0  0  0  0
  4  5  1  0  0  0  0
  5  3  1  0  0  0  0
  6  7  1  0  0  0  0
  7  4  1  0  0  0  0
  8  6  1  0  0  0  0
  9  1  1  0  0  0  0
 10  2  2  0  0  0  0
 11  3  2  0  0  0  0
 12  7  1  0  0  0  0
 13  6  2  0  0  0  0
 14  9  1  0  0  0  0
 15  9  2  0  0  0  0
 16  8  1  0  0  0  0
 17 12  1  0  0  0  0
 18 28  1  0  0  0  0
 19 21  2  0  0  0  0
 20 30  2  0  0  0  0
 21 15  1  0  0  0  0
 22 14  2  0  0  0  0
 22 19  1  0  0  0  0
 23 18  1  0  0  0  0
 24 16  2  0  0  0  0
 25 16  1  0  0  0  0
 26 17  1  0  0  0  0
 27 17  2  0  0  0  0
 28 25  2  0  0  0  0
 29 24  1  0  0  0  0
 29 18  2  0  0  0  0
 30 27  1  0  0  0  0
 31 26  2  0  0  0  0
 31 20  1  0  0  0  0
 32 20  1  0  0  0  0
 33 19  1  0  0  0  0
 34 32  1  0  0  0  0
 35 33  1  0  0  0  0
M  END
>  <ID>
7850183

>  <Supplier>
ChemBridge

>  <clogP>
5.116999999999996e+000

>  <RB>
5

>  <tPSA>
8.818000000000001e+001

>  <Hacc>
5

>  <Hdon>
1

>  <LogSw>
-7.170000000000000e+000

>  <Group>
1

>  <Core>
126

$$$$
5431161
 OpenBabel03312015312D

 17 18  0  0  0  0  0  0  0  0999 V2000
   -1.9708    2.2125    0.0000 N   0  0  0  0  0  0  0  0  0  0  0  0
   -3.3125    3.0000    0.0000 O   0  0  0  0  0  0  0  0  0  0  0  0
   -3.3125    2.2125    0.0000 C   0  0  3  0  0  0  0  0  0  0  0  0
   -2.6333    3.4000    0.0000 C   0  0  3  0  0  0  0  0  0  0  0  0
   -2.6333    1.8208    0.0000 C   0  0  0  0  0  0  0  0  0  0  0  0
   -1.9708    3.0000    0.0000 C   0  0  0  0  0  0  0  0  0  0  0  0
   -1.2833    1.8208    0.0000 C   0  0  0  0  0  0  0  0  0  0  0  0
    0.7667    2.2125    0.0000 C   0  0  0  0  0  0  0  0  0  0  0  0
   -0.5958    2.2125    0.0000 C   0  0  0  0  0  0  0  0  0  0  0  0
    0.0875    1.8125    0.0000 C   0  0  0  0  0  0  0  0  0  0  0  0
   -2.6333    4.1875    0.0000 C   0  0  0  0  0  0  0  0  0  0  0  0
   -4.0208    1.8000    0.0000 C   0  0  0  0  0  0  0  0  0  0  0  0
    0.7667    3.0000    0.0000 C   0  0  0  0  0  0  0  0  0  0  0  0
    1.4500    1.8125    0.0000 C   0  0  0  0  0  0  0  0  0  0  0  0
    2.1292    2.2125    0.0000 C   0  0  0  0  0  0  0  0  0  0  0  0
    1.4500    3.3958    0.0000 C   0  0  0  0  0  0  0  0  0  0  0  0
    2.1292    3.0000    0.0000 C   0  0  0  0  0  0  0  0  0  0  0  0
  2  4  1  0  0  0  0
  2  3  1  0  0  0  0
  3  5  1  0  0  0  0
  4  6  1  0  0  0  0
  5  1  1  0  0  0  0
  6  1  1  0  0  0  0
  7  1  1  0  0  0  0
  8 10  1  0  0  0  0
  9  7  1  0  0  0  0
 10  9  1  0  0  0  0
 11  4  1  0  0  0  0
 12  3  1  0  0  0  0
 13  8  2  0  0  0  0
 14  8  1  0  0  0  0
 15 14  2  0  0  0  0
 16 13  1  0  0  0  0
 16 17  2  0  0  0  0
 17 15  1  0  0  0  0
M  END
>  <ID>
5431161

>  <Supplier>
ChemBridge

>  <clogP>
3.560000000000000e+000

>  <RB>
4

>  <tPSA>
1.247000000000000e+001

>  <Hacc>
2

>  <Hdon>
0

>  <LogSw>
-2.935000000000000e+000

>  <Group>
3

$$$$
6911556
 OpenBabel03312015312D

 15 15  0  0  0  0  0  0  0  0999 V2000
   -1.0500    1.2000    0.0000 C   0  0  0  0  0  0  0  0  0  0  0  0
   -0.3708    0.0000    0.0000 N   0  0  0  0  0  0  0  0  0  0  0  0
    1.0500    0.0000    0.0000 C   0  0  0  0  0  0  0  0  0  0  0  0
    1.7292   -1.2042    0.0000 C   0  0  0  0  0  0  0  0  0  0  0  0
   -0.3708    2.4125    0.0000 S   0  0  0  0  0  0  0  0  0  0  0  0
    3.1542   -1.2042    0.0000 C   0  0  0  0  0  0  0  0  0  0  0  0
    1.7292    1.2000    0.0000 C   0  0  0  0  0  0  0  0  0  0  0  0
   -2.4625    1.2000    0.0000 N   0  0  0  0  0  0  0  0  0  0  0  0
    3.8500    0.0000    0.0000 C   0  0  0  0  0  0  0  0  0  0  0  0
    3.1542    1.2000    0.0000 C   0  0  0  0  0  0  0  0  0  0  0  0
    5.2500    0.0000    0.0000 Cl  0  0  0  0  0  0  0  0  0  0  0  0
    1.0000   -2.4042    0.0000 C   0  0  0  0  0  0  0  0  0  0  0  0
   -3.1500   -0.0042    0.0000 C   0  0  0  0  0  0  0  0  0  0  0  0
   -4.5458   -0.0042    0.0000 C   0  0  0  0  0  0  0  0  0  0  0  0
   -5.2500   -1.2000    0.0000 C   0  0  0  0  0  0  0  0  0  0  0  0
  2  1  1  0  0  0  0
  3  2  1  0  0  0  0
  4  3  2  0  0  0  0
  5  1  2  0  0  0  0
  6  4  1  0  0  0  0
  6  9  2  0  0  0  0
  7  3  1  0  0  0  0
  8  1  1  0  0  0  0
  9 10  1  0  0  0  0
 10  7  2  0  0  0  0
 11  9  1  0  0  0  0
 12  4  1  0  0  0  0
 13  8  1  0  0  0  0
 14 13  1  0  0  0  0
 15 14  1  0  0  0  0
M  END
>  <ID>
6911556

>  <Supplier>
ChemBridge

>  <clogP>
2.890000000000000e+000

>  <RB>
1

>  <tPSA>
2.406000000000000e+001

>  <Hacc>
0

>  <Hdon>
2

>  <LogSw>
-2.431000000000000e+000

>  <Group>
1

$$$$
7205785
 OpenBabel03312015312D

 21 22  0  0  0  0  0  0  0  0999 V2000
    4.9000    4.2917    0.0000 C   0  0  0  0  0  0  0  0  0  0  0  0
    3.7000    3.6083    0.0000 C   0  0  3  0  0  0  0  0  0  0  0  0
    3.7000    2.1000    0.0000 C   0  0  3  0  0  0  0  0  0  0  0  0
    6.1000    3.6083    0.0000 N   0  0  0  0  0  0  0  0  0  0  0  0
    4.9000    1.4000    0.0000 C   0  0  0  0  0  0  0  0  0  0  0  0
    2.5000    1.4000    0.0000 C   0  0  0  0  0  0  0  0  0  0  0  0
    7.3000    4.2917    0.0000 C   0  0  0  0  0  0  0  0  0  0  0  0
    1.2000    3.6083    0.0000 C   0  0  0  0  0  0  0  0  0  0  0  0
    1.2000    2.1000    0.0000 C   0  0  0  0  0  0  0  0  0  0  0  0
    2.5000    4.2917    0.0000 C   0  0  0  0  0  0  0  0  0  0  0  0
    4.9000    5.7000    0.0000 O   0  0  0  0  0  0  0  0  0  0  0  0
    4.9000    0.0000    0.0000 O   0  0  0  0  0  0  0  0  0  0  0  0
    8.6000    3.6083    0.0000 C   0  0  0  0  0  0  0  0  0  0  0  0
    0.0000    4.2000    0.0000 Cl  0  0  0  0  0  0  0  0  0  0  0  0
    6.1000    2.1000    0.0000 O   0  0  0  0  0  0  0  0  0  0  0  0
    8.6000    2.1000    0.0000 O   0  0  0  0  0  0  0  0  0  0  0  0
    7.3000    5.7000    0.0000 C   0  0  0  0  0  0  0  0  0  0  0  0
    9.8000    4.2000    0.0000 C   0  0  0  0  0  0  0  0  0  0  0  0
    9.8000    1.4000    0.0000 C   0  0  0  0  0  0  0  0  0  0  0  0
    8.6000    6.4000    0.0000 C   0  0  0  0  0  0  0  0  0  0  0  0
    9.8000    5.7000    0.0000 C   0  0  0  0  0  0  0  0  0  0  0  0
  2  1  1  0  0  0  0
  3  2  1  0  0  0  0
  4  1  1  0  0  0  0
  5  3  1  0  0  0  0
  6  3  1  0  0  0  0
  6  9  1  0  0  0  0
  7  4  1  0  0  0  0
  8 10  1  0  0  0  0
  9  8  2  0  0  0  0
 10  2  1  0  0  0  0
 11  1  2  0  0  0  0
 12  5  2  0  0  0  0
 13  7  2  0  0  0  0
 14  8  1  0  0  0  0
 15  5  1  0  0  0  0
 16 13  1  0  0  0  0
 17  7  1  0  0  0  0
 18 13  1  0  0  0  0
 19 16  1  0  0  0  0
 20 17  2  0  0  0  0
 21 20  1  0  0  0  0
 21 18  2  0  0  0  0
M  END
>  <ID>
7205785

>  <Supplier>
ChemBridge

>  <clogP>
1.870000000000000e+000

>  <RB>
3

>  <tPSA>
7.563000000000000e+001

>  <Hacc>
4

>  <Hdon>
2

>  <LogSw>
-3.056000000000000e+000

>  <Group>
3

$$$$
5431164
 OpenBabel03312015312D

 21 23  0  0  0  0  0  0  0  0999 V2000
   -3.9333    3.3000    0.0000 C   0  0  0  0  0  0  0  0  0  0  0  0
   -3.2625    2.9333    0.0000 N   0  0  0  0  0  0  0  0  0  0  0  0
   -1.9083    2.1208    0.0000 N   0  0  0  0  0  0  0  0  0  0  0  0
   -3.9333    4.0875    0.0000 N   0  0  0  0  0  0  0  0  0  0  0  0
   -4.6125    2.9333    0.0000 N   0  0  0  0  0  0  0  0  0  0  0  0
   -2.5833    3.3000    0.0000 C   0  0  0  0  0  0  0  0  0  0  0  0
   -3.2625    2.1208    0.0000 C   0  0  0  0  0  0  0  0  0  0  0  0
   -2.5833    1.7458    0.0000 C   0  0  0  0  0  0  0  0  0  0  0  0
   -1.9083    2.9333    0.0000 C   0  0  0  0  0  0  0  0  0  0  0  0
   -1.2333    1.7458    0.0000 C   0  0  0  0  0  0  0  0  0  0  0  0
   -5.2708    4.0875    0.0000 C   0  0  0  0  0  0  0  0  0  0  0  0
   -5.2708    3.3000    0.0000 C   0  0  0  0  0  0  0  0  0  0  0  0
   -4.6125    4.5000    0.0000 C   0  0  0  0  0  0  0  0  0  0  0  0
    0.7667    2.2125    0.0000 C   0  0  0  0  0  0  0  0  0  0  0  0
   -0.5958    2.2125    0.0000 C   0  0  0  0  0  0  0  0  0  0  0  0
    0.0875    1.8125    0.0000 C   0  0  0  0  0  0  0  0  0  0  0  0
    0.7667    3.0000    0.0000 C   0  0  0  0  0  0  0  0  0  0  0  0
    1.4500    1.8125    0.0000 C   0  0  0  0  0  0  0  0  0  0  0  0
    2.1292    2.2125    0.0000 C   0  0  0  0  0  0  0  0  0  0  0  0
    1.4500    3.3958    0.0000 C   0  0  0  0  0  0  0  0  0  0  0  0
    2.1292    3.0000    0.0000 C   0  0  0  0  0  0  0  0  0  0  0  0
  2  1  1  0  0  0  0
  3  8  1  0  0  0  0
  4  1  2  0  0  0  0
  5  1  1  0  0  0  0
  6  2  1  0  0  0  0
  7  2  1  0  0  0  0
  8  7  1  0  0  0  0
  9  6  1  0  0  0  0
  9  3  1  0  0  0  0
 10  3  1  0  0  0  0
 11 12  1  0  0  0  0
 11 13  2  0  0  0  0
 12  5  2  0  0  0  0
 13  4  1  0  0  0  0
 14 16  1  0  0  0  0
 15 10  1  0  0  0  0
 16 15  1  0  0  0  0
 17 14  2  0  0  0  0
 18 14  1  0  0  0  0
 19 18  2  0  0  0  0
 20 17  1  0  0  0  0
 20 21  2  0  0  0  0
 21 19  1  0  0  0  0
M  END
>  <ID>
5431164

>  <Supplier>
ChemBridge

>  <clogP>
2.680000000000000e+000

>  <RB>
5

>  <tPSA>
3.226000000000000e+001

>  <Hacc>
3

>  <Hdon>
0

>  <LogSw>
-2.541000000000000e+000

>  <Group>
3

>  <Core>
162

$$$$
5431167
 OpenBabel03312015312D

 21 23  0  0  0  0  0  0  0  0999 V2000
   -0.5958    2.2125    0.0000 C   0  0  0  0  0  0  0  0  0  0  0  0
   -1.9708    2.2125    0.0000 N   0  0  0  0  0  0  0  0  0  0  0  0
   -0.5958    2.9958    0.0000 C   0  0  0  0  0  0  0  0  0  0  0  0
   -1.2833    1.8208    0.0000 C   0  0  0  0  0  0  0  0  0  0  0  0
    0.0792    1.8500    0.0000 C   0  0  0  0  0  0  0  0  0  0  0  0
    0.0792    3.3833    0.0000 C   0  0  0  0  0  0  0  0  0  0  0  0
   -2.6333    1.8208    0.0000 C   0  0  0  0  0  0  0  0  0  0  0  0
    0.7500    2.2125    0.0000 C   0  0  0  0  0  0  0  0  0  0  0  0
    0.7500    2.9958    0.0000 C   0  0  0  0  0  0  0  0  0  0  0  0
   -3.3125    2.2125    0.0000 C   0  0  3  0  0  0  0  0  0  0  0  0
   -1.9708    3.0000    0.0000 C   0  0  0  0  0  0  0  0  0  0  0  0
    0.0792    1.0833    0.0000 O   0  0  0  0  0  0  0  0  0  0  0  0
   -4.6625    2.1958    0.0000 O   0  0  0  0  0  0  0  0  0  0  0  0
   -1.2708    3.3833    0.0000 C   0  0  0  0  0  0  0  0  0  0  0  0
   -2.6333    3.4000    0.0000 C   0  0  0  0  0  0  0  0  0  0  0  0
   -3.9958    1.8125    0.0000 C   0  0  0  0  0  0  0  0  0  0  0  0
   -3.3125    3.0000    0.0000 C   0  0  0  0  0  0  0  0  0  0  0  0
    0.0792    4.1542    0.0000 C   0  0  0  0  0  0  0  0  0  0  0  0
    0.7375    0.6833    0.0000 C   0  0  0  0  0  0  0  0  0  0  0  0
   -1.2708    4.1500    0.0000 C   0  0  0  0  0  0  0  0  0  0  0  0
   -0.5958    4.5292    0.0000 C   0  0  0  0  0  0  0  0  0  0  0  0
  2  4  1  0  0  0  0
  3  1  2  0  0  0  0
  4  1  1  0  0  0  0
  5  1  1  0  0  0  0
  6  3  1  0  0  0  0
  6  9  2  0  0  0  0
  7  2  1  0  0  0  0
  8  5  2  0  0  0  0
  9  8  1  0  0  0  0
 10  7  1  0  0  0  0
 11  2  1  0  0  0  0
 12  5  1  0  0  0  0
 13 16  1  0  0  0  0
 14  3  1  0  0  0  0
 15 11  1  0  0  0  0
 16 10  1  0  0  0  0
 17 15  1  0  0  0  0
 17 10  1  0  0  0  0
 18  6  1  0  0  0  0
 19 12  1  0  0  0  0
 20 14  2  0  0  0  0
 21 20  1  0  0  0  0
 21 18  2  0  0  0  0
M  END
>  <ID>
5431167

>  <Supplier>
ChemBridge

>  <clogP>
2.790000000000000e+000

>  <RB>
3

>  <tPSA>
3.270000000000000e+001

>  <Hacc>
3

>  <Hdon>
1

>  <LogSw>
-2.656000000000000e+000

>  <Group>
3

$$$$
7114666
 OpenBabel03312015312D

 19 21  0  0  0  0  0  0  0  0999 V2000
   -0.8458    0.4958    0.0000 C   0  0  0  0  0  0  0  0  0  0  0  0
   -0.8458   -0.2875    0.0000 C   0  0  0  0  0  0  0  0  0  0  0  0
   -0.1833    0.8708    0.0000 C   0  0  0  0  0  0  0  0  0  0  0  0
    0.4792    0.4958    0.0000 N   0  0  0  0  0  0  0  0  0  0  0  0
   -0.1833   -0.6667    0.0000 N   0  0  0  0  0  0  0  0  0  0  0  0
   -1.5833   -0.5042    0.0000 S   0  0  0  0  0  0  0  0  0  0  0  0
   -1.5833    0.7333    0.0000 C   0  0  0  0  0  0  0  0  0  0  0  0
    0.4792   -0.2667    0.0000 C   0  0  0  0  0  0  0  0  0  0  0  0
   -2.0000    0.0958    0.0000 C   0  0  0  0  0  0  0  0  0  0  0  0
    1.1375    0.8708    0.0000 C   0  0  0  0  0  0  0  0  0  0  0  0
   -0.1833    1.6500    0.0000 O   0  0  0  0  0  0  0  0  0  0  0  0
    1.8000    0.4958    0.0000 C   0  0  0  0  0  0  0  0  0  0  0  0
    1.1375    1.6333    0.0000 C   0  0  0  0  0  0  0  0  0  0  0  0
    2.4542    1.6333    0.0000 C   0  0  0  0  0  0  0  0  0  0  0  0
   -1.8458    1.4500    0.0000 C   0  0  0  0  0  0  0  0  0  0  0  0
    1.8000    2.0208    0.0000 C   0  0  0  0  0  0  0  0  0  0  0  0
    2.4542    0.8708    0.0000 C   0  0  0  0  0  0  0  0  0  0  0  0
    3.1375    1.9958    0.0000 I   0  0  0  0  0  0  0  0  0  0  0  0
   -2.7833    0.0958    0.0000 C   0  0  0  0  0  0  0  0  0  0  0  0
  2  1  2  0  0  0  0
  3  1  1  0  0  0  0
  4  3  1  0  0  0  0
  5  2  1  0  0  0  0
  5  8  2  0  0  0  0
  6  2  1  0  0  0  0
  7  1  1  0  0  0  0
  8  4  1  0  0  0  0
  9  7  2  0  0  0  0
  9  6  1  0  0  0  0
 10  4  1  0  0  0  0
 11  3  2  0  0  0  0
 12 10  1  0  0  0  0
 13 10  2  0  0  0  0
 14 16  2  0  0  0  0
 14 17  1  0  0  0  0
 15  7  1  0  0  0  0
 16 13  1  0  0  0  0
 17 12  2  0  0  0  0
 18 14  1  0  0  0  0
 19  9  1  0  0  0  0
M  END
>  <ID>
7114666

>  <Supplier>
ChemBridge

>  <clogP>
3.800000000000000e+000

>  <RB>
1

>  <tPSA>
3.489000000000000e+001

>  <Hacc>
2

>  <Hdon>
0

>  <LogSw>
-5.232000000000000e+000

>  <Group>
3

>  <Core>
063

$$$$
7331407
 OpenBabel03312015312D

 24 26  0  0  0  0  0  0  0  0999 V2000
    3.2875   -3.3417    0.0000 N   0  0  0  0  0  0  0  0  0  0  0  0
    2.7292   -3.9542    0.0000 C   0  0  0  0  0  0  0  0  0  0  0  0
    3.1417   -4.6792    0.0000 N   0  0  0  0  0  0  0  0  0  0  0  0
    4.0417   -3.6792    0.0000 C   0  0  0  0  0  0  0  0  0  0  0  0
    3.9542   -4.5042    0.0000 O   0  0  0  0  0  0  0  0  0  0  0  0
    0.5875   -4.4375    0.0000 C   0  0  0  0  0  0  0  0  0  0  0  0
    1.4125   -4.5292    0.0000 C   0  0  0  0  0  0  0  0  0  0  0  0
    6.8917   -3.6667    0.0000 C   0  0  0  0  0  0  0  0  0  0  0  0
    0.0917   -5.1042    0.0000 C   0  0  0  0  0  0  0  0  0  0  0  0
    1.9042   -3.8625    0.0000 C   0  0  0  0  0  0  0  0  0  0  0  0
    6.1792   -3.2542    0.0000 C   0  0  0  0  0  0  0  0  0  0  0  0
    5.4750   -3.6750    0.0000 O   0  0  0  0  0  0  0  0  0  0  0  0
    7.6000   -3.2500    0.0000 C   0  0  0  0  0  0  0  0  0  0  0  0
    4.7542   -3.2667    0.0000 C   0  0  0  0  0  0  0  0  0  0  0  0
    1.7417   -5.2917    0.0000 C   0  0  0  0  0  0  0  0  0  0  0  0
    0.4250   -5.8667    0.0000 C   0  0  0  0  0  0  0  0  0  0  0  0
    0.2542   -3.6792    0.0000 Cl  0  0  0  0  0  0  0  0  0  0  0  0
    1.2500   -5.9542    0.0000 C   0  0  0  0  0  0  0  0  0  0  0  0
   -0.0708   -6.5292    0.0000 Cl  0  0  0  0  0  0  0  0  0  0  0  0
    6.8750   -2.0167    0.0000 C   0  0  0  0  0  0  0  0  0  0  0  0
    6.8917   -4.4917    0.0000 C   0  0  0  0  0  0  0  0  0  0  0  0
    6.1667   -2.4417    0.0000 C   0  0  0  0  0  0  0  0  0  0  0  0
    7.5917   -2.4292    0.0000 C   0  0  0  0  0  0  0  0  0  0  0  0
    8.3167   -3.6542    0.0000 C   0  0  0  0  0  0  0  0  0  0  0  0
  2  1  1  0  0  0  0
  3  2  2  0  0  0  0
  3  5  1  0  0  0  0
  4  1  2  0  0  0  0
  5  4  1  0  0  0  0
  6  7  1  0  0  0  0
  7 10  1  0  0  0  0
  8 11  2  0  0  0  0
  9  6  2  0  0  0  0
  9 16  1  0  0  0  0
 10  2  1  0  0  0  0
 11 12  1  0  0  0  0
 12 14  1  0  0  0  0
 13  8  1  0  0  0  0
 13 23  2  0  0  0  0
 14  4  1  0  0  0  0
 15  7  2  0  0  0  0
 16 18  2  0  0  0  0
 17  6  1  0  0  0  0
 18 15  1  0  0  0  0
 19 16  1  0  0  0  0
 20 22  2  0  0  0  0
 21  8  1  0  0  0  0
 22 11  1  0  0  0  0
 23 20  1  0  0  0  0
 24 13  1  0  0  0  0
M  END
>  <ID>
7331407

>  <Supplier>
ChemBridge

>  <clogP>
5.392000000000000e+000

>  <RB>
5

>  <tPSA>
4.814999999999998e+001

>  <Hacc>
4

>  <Hdon>
0

>  <LogSw>
-6.453000000000000e+000

>  <Group>
1

>  <Core>
201

$$$$
6777531
 OpenBabel03312015312D

 28 31  0  0  0  0  0  0  0  0999 V2000
    4.9625    1.4875    0.0000 N   0  0  0  0  0  0  0  0  0  0  0  0
    5.8250    2.5833    0.0000 C   0  0  0  0  0  0  0  0  0  0  0  0
    5.0417    3.7583    0.0000 O   0  0  0  0  0  0  0  0  0  0  0  0
    3.7000    3.3708    0.0000 C   0  0  0  0  0  0  0  0  0  0  0  0
    3.6417    1.9708    0.0000 C   0  0  0  0  0  0  0  0  0  0  0  0
   14.1167    2.3708    0.0000 C   0  0  0  0  0  0  0  0  0  0  0  0
   12.7542    2.7083    0.0000 C   0  0  0  0  0  0  0  0  0  0  0  0
    2.5042    4.1042    0.0000 C   0  0  0  0  0  0  0  0  0  0  0  0
   14.5125    1.0208    0.0000 C   0  0  0  0  0  0  0  0  0  0  0  0
   11.4000    2.3958    0.0000 N   0  0  0  0  0  0  0  0  0  0  0  0
    2.4042    1.3125    0.0000 C   0  0  0  0  0  0  0  0  0  0  0  0
    1.2792    3.4583    0.0000 C   0  0  0  0  0  0  0  0  0  0  0  0
   15.1042    3.3833    0.0000 C   0  0  0  0  0  0  0  0  0  0  0  0
    7.2167    2.5375    0.0000 C   0  0  0  0  0  0  0  0  0  0  0  0
    1.2292    2.0583    0.0000 C   0  0  0  0  0  0  0  0  0  0  0  0
   12.7667    4.0917    0.0000 O   0  0  0  0  0  0  0  0  0  0  0  0
   15.8875    0.6708    0.0000 C   0  0  0  0  0  0  0  0  0  0  0  0
    7.8750    1.3083    0.0000 C   0  0  0  0  0  0  0  0  0  0  0  0
    7.9542    3.7208    0.0000 C   0  0  0  0  0  0  0  0  0  0  0  0
   10.0042    2.4375    0.0000 C   0  0  0  0  0  0  0  0  0  0  0  0
    2.5542    5.5042    0.0000 Cl  0  0  0  0  0  0  0  0  0  0  0  0
   13.5417    0.0000    0.0000 Cl  0  0  0  0  0  0  0  0  0  0  0  0
   16.4750    3.0458    0.0000 C   0  0  0  0  0  0  0  0  0  0  0  0
   16.8542    1.6833    0.0000 C   0  0  0  0  0  0  0  0  0  0  0  0
    0.0000    1.4083    0.0000 Cl  0  0  0  0  0  0  0  0  0  0  0  0
    9.2667    1.2583    0.0000 C   0  0  0  0  0  0  0  0  0  0  0  0
    9.3542    3.6708    0.0000 C   0  0  0  0  0  0  0  0  0  0  0  0
   18.2167    1.3375    0.0000 C   0  0  0  0  0  0  0  0  0  0  0  0
  2  1  2  0  0  0  0
  3  2  1  0  0  0  0
  3  4  1  0  0  0  0
  4  5  2  0  0  0  0
  5  1  1  0  0  0  0
  6  7  1  0  0  0  0
  7 10  1  0  0  0  0
  8  4  1  0  0  0  0
  8 12  2  0  0  0  0
  9  6  2  0  0  0  0
 10 20  1  0  0  0  0
 11  5  1  0  0  0  0
 12 15  1  0  0  0  0
 13  6  1  0  0  0  0
 14  2  1  0  0  0  0
 15 11  2  0  0  0  0
 16  7  2  0  0  0  0
 17  9  1  0  0  0  0
 17 24  2  0  0  0  0
 18 14  1  0  0  0  0
 19 14  2  0  0  0  0
 20 27  2  0  0  0  0
 21  8  1  0  0  0  0
 22  9  1  0  0  0  0
 23 13  2  0  0  0  0
 24 23  1  0  0  0  0
 25 15  1  0  0  0  0
 26 18  2  0  0  0  0
 26 20  1  0  0  0  0
 27 19  1  0  0  0  0
 28 24  1  0  0  0  0
M  END
>  <ID>
6777531

>  <Supplier>
ChemBridge

>  <clogP>
6.170000000000000e+000

>  <RB>
3

>  <tPSA>
5.513000000000000e+001

>  <Hacc>
3

>  <Hdon>
1

>  <LogSw>
-7.616000000000000e+000

>  <Group>
1

>  <Core>
068

$$$$
7412674
 OpenBabel03312015312D

 26 28  0  0  0  0  0  0  0  0999 V2000
    2.3792   -0.6542    0.0000 N   0  0  0  0  0  0  0  0  0  0  0  0
    3.0375   -0.2792    0.0000 C   0  0  0  0  0  0  0  0  0  0  0  0
    1.7375   -0.2792    0.0000 C   0  0  0  0  0  0  0  0  0  0  0  0
    3.6875   -0.6542    0.0000 N   0  0  0  0  0  0  0  0  0  0  0  0
    4.9792   -1.4042    0.0000 N   0  0  0  0  0  0  0  0  0  0  0  0
    4.3375   -0.2792    0.0000 C   0  0  0  0  0  0  0  0  0  0  0  0
    4.9792   -0.6542    0.0000 C   0  0  0  0  0  0  0  0  0  0  0  0
    1.0875   -0.6542    0.0000 C   0  0  0  0  0  0  0  0  0  0  0  0
    3.0375    0.4708    0.0000 S   0  0  0  0  0  0  0  0  0  0  0  0
    1.7375    0.4708    0.0000 O   0  0  0  0  0  0  0  0  0  0  0  0
    0.4375   -0.2792    0.0000 C   0  0  0  0  0  0  0  0  0  0  0  0
   -0.2125   -0.6542    0.0000 C   0  0  0  0  0  0  0  0  0  0  0  0
    4.3292   -1.7792    0.0000 C   0  0  0  0  0  0  0  0  0  0  0  0
    5.6292   -1.7792    0.0000 C   0  0  0  0  0  0  0  0  0  0  0  0
   -0.8625   -0.2792    0.0000 O   0  0  0  0  0  0  0  0  0  0  0  0
    4.3375    0.4708    0.0000 C   0  0  0  0  0  0  0  0  0  0  0  0
    1.0875   -1.4042    0.0000 C   0  0  0  0  0  0  0  0  0  0  0  0
    5.6375   -0.2792    0.0000 C   0  0  0  0  0  0  0  0  0  0  0  0
    0.4375   -1.7792    0.0000 C   0  0  0  0  0  0  0  0  0  0  0  0
   -0.2125   -1.4042    0.0000 C   0  0  0  0  0  0  0  0  0  0  0  0
   -0.8625    0.4708    0.0000 C   0  0  0  0  0  0  0  0  0  0  0  0
    4.3292   -2.5292    0.0000 C   0  0  0  0  0  0  0  0  0  0  0  0
    5.6292   -2.5292    0.0000 C   0  0  0  0  0  0  0  0  0  0  0  0
    4.9792    0.8500    0.0000 C   0  0  0  0  0  0  0  0  0  0  0  0
    5.6375    0.4708    0.0000 C   0  0  0  0  0  0  0  0  0  0  0  0
    4.9792   -2.9042    0.0000 C   0  0  0  0  0  0  0  0  0  0  0  0
  2  1  1  0  0  0  0
  3  1  1  0  0  0  0
  4  2  1  0  0  0  0
  5  7  1  0  0  0  0
  6  4  1  0  0  0  0
  7  6  2  0  0  0  0
  8  3  1  0  0  0  0
  9  2  2  0  0  0  0
 10  3  2  0  0  0  0
 11  8  1  0  0  0  0
 12 11  2  0  0  0  0
 12 20  1  0  0  0  0
 13  5  1  0  0  0  0
 14  5  1  0  0  0  0
 15 12  1  0  0  0  0
 16  6  1  0  0  0  0
 17  8  2  0  0  0  0
 18  7  1  0  0  0  0
 18 25  2  0  0  0  0
 19 17  1  0  0  0  0
 20 19  2  0  0  0  0
 21 15  1  0  0  0  0
 22 13  1  0  0  0  0
 22 26  1  0  0  0  0
 23 14  1  0  0  0  0
 24 16  2  0  0  0  0
 25 24  1  0  0  0  0
 26 23  1  0  0  0  0
M  END
>  <ID>
7412674

>  <Supplier>
ChemBridge

>  <clogP>
4.119000000000000e+000

>  <RB>
3

>  <tPSA>
5.359999999999999e+001

>  <Hacc>
2

>  <Hdon>
2

>  <LogSw>
-6.240000000000000e+000

>  <Group>
1

>  <Core>
071

$$$$
7727322
 OpenBabel03312015312D

 32 34  0  0  0  0  0  0  0  0999 V2000
    5.8042   -4.0417    0.0000 C   0  0  0  0  0  0  0  0  0  0  0  0
    4.4667   -4.0417    0.0000 N   0  0  0  0  0  0  0  0  0  0  0  0
    5.5500   -4.8292    0.0000 C   0  0  0  0  0  0  0  0  0  0  0  0
    4.7250   -4.8292    0.0000 C   0  0  0  0  0  0  0  0  0  0  0  0
    5.1375   -3.5625    0.0000 C   0  0  3  0  0  0  0  0  0  0  0  0
    6.5917   -3.7917    0.0000 C   0  0  0  0  0  0  0  0  0  0  0  0
    5.1500   -0.2542    0.0000 N   0  3  0  0  0  0  0  0  0  0  0  0
    7.2042   -4.3417    0.0000 C   0  0  0  0  0  0  0  0  0  0  0  0
    3.6875   -3.7917    0.0000 C   0  0  0  0  0  0  0  0  0  0  0  0
    7.9792   -4.0792    0.0000 C   0  0  0  0  0  0  0  0  0  0  0  0
    5.1500   -1.0875    0.0000 C   0  0  0  0  0  0  0  0  0  0  0  0
    5.1417   -2.7375    0.0000 C   0  0  0  0  0  0  0  0  0  0  0  0
    8.5917   -4.6292    0.0000 C   0  0  0  0  0  0  0  0  0  0  0  0
    5.8625    0.1583    0.0000 O   0  5  0  0  0  0  0  0  0  0  0  0
    4.2417   -5.5000    0.0000 O   0  0  0  0  0  0  0  0  0  0  0  0
    4.4292    0.1583    0.0000 O   0  0  0  0  0  0  0  0  0  0  0  0
    6.7667   -2.9792    0.0000 O   0  0  0  0  0  0  0  0  0  0  0  0
    8.4292   -5.4417    0.0000 C   0  0  0  0  0  0  0  0  0  0  0  0
    7.0292   -5.1500    0.0000 C   0  0  0  0  0  0  0  0  0  0  0  0
    6.0292   -5.5000    0.0000 O   0  0  0  0  0  0  0  0  0  0  0  0
    4.4292   -1.5042    0.0000 C   0  0  0  0  0  0  0  0  0  0  0  0
    5.8667   -1.5042    0.0000 C   0  0  0  0  0  0  0  0  0  0  0  0
    4.4292   -2.3292    0.0000 C   0  0  0  0  0  0  0  0  0  0  0  0
    5.8667   -2.3292    0.0000 C   0  0  0  0  0  0  0  0  0  0  0  0
    7.6375   -5.7000    0.0000 C   0  0  0  0  0  0  0  0  0  0  0  0
    3.0750   -4.3417    0.0000 C   0  0  0  0  0  0  0  0  0  0  0  0
    2.2917   -4.0875    0.0000 N   0  0  0  0  0  0  0  0  0  0  0  0
    9.3792   -4.3750    0.0000 Cl  0  0  0  0  0  0  0  0  0  0  0  0
    9.0375   -5.9917    0.0000 O   0  0  0  0  0  0  0  0  0  0  0  0
    2.1167   -3.2792    0.0000 C   0  0  0  0  0  0  0  0  0  0  0  0
    1.6792   -4.6417    0.0000 C   0  0  0  0  0  0  0  0  0  0  0  0
    9.8250   -5.7375    0.0000 C   0  0  0  0  0  0  0  0  0  0  0  0
  2  5  1  0  0  0  0
  3  1  2  0  0  0  0
  4  3  1  0  0  0  0
  4  2  1  0  0  0  0
  5  1  1  0  0  0  0
  6  1  1  0  0  0  0
  7 11  1  0  0  0  0
  8  6  1  0  0  0  0
  9  2  1  0  0  0  0
 10  8  1  0  0  0  0
 11 22  2  0  0  0  0
 11 21  1  0  0  0  0
 12  5  1  0  0  0  0
 13 10  2  0  0  0  0
 13 18  1  0  0  0  0
 14  7  1  0  0  0  0
 15  4  2  0  0  0  0
 16  7  2  0  0  0  0
 17  6  2  0  0  0  0
 18 25  2  0  0  0  0
 19  8  2  0  0  0  0
 20  3  1  0  0  0  0
 21 23  2  0  0  0  0
 22 24  1  0  0  0  0
 23 12  1  0  0  0  0
 24 12  2  0  0  0  0
 25 19  1  0  0  0  0
 26  9  1  0  0  0  0
 27 26  1  0  0  0  0
 28 13  1  0  0  0  0
 29 18  1  0  0  0  0
 30 27  1  0  0  0  0
 31 27  1  0  0  0  0
 32 29  1  0  0  0  0
M  CHG  2   7   1  14  -1
M  END
>  <ID>
7727322

>  <Supplier>
ChemBridge

>  <clogP>
4.125999999999996e+000

>  <RB>
5

>  <tPSA>
1.132200000000000e+002

>  <Hacc>
7

>  <Hdon>
1

>  <LogSw>
-4.279000000000002e+000

>  <Group>
1

>  <Core>
095

$$$$
7412676
 OpenBabel03312015312D

 20 22  0  0  0  0  0  0  0  0999 V2000
   10.3542   -5.3917    0.0000 C   0  0  0  0  0  0  0  0  0  0  0  0
    9.6542   -6.1792    0.0000 C   0  0  0  0  0  0  0  0  0  0  0  0
   10.6875   -5.9667    0.0000 C   0  0  0  0  0  0  0  0  0  0  0  0
   10.2542   -6.4500    0.0000 O   0  0  0  0  0  0  0  0  0  0  0  0
    9.7292   -5.5375    0.0000 C   0  0  0  0  0  0  0  0  0  0  0  0
   10.6125   -4.8000    0.0000 C   0  0  0  0  0  0  0  0  0  0  0  0
    9.0917   -6.5042    0.0000 C   0  0  0  0  0  0  0  0  0  0  0  0
   11.3292   -6.0292    0.0000 O   0  0  0  0  0  0  0  0  0  0  0  0
    8.5292   -6.1792    0.0000 C   0  0  0  0  0  0  0  0  0  0  0  0
    9.0917   -7.1542    0.0000 C   0  0  0  0  0  0  0  0  0  0  0  0
   10.2292   -4.2792    0.0000 C   0  0  0  0  0  0  0  0  0  0  0  0
    7.9750   -7.1542    0.0000 C   0  0  0  0  0  0  0  0  0  0  0  0
    8.5292   -7.4792    0.0000 C   0  0  0  0  0  0  0  0  0  0  0  0
    7.9750   -6.5042    0.0000 C   0  0  0  0  0  0  0  0  0  0  0  0
    7.4042   -7.4792    0.0000 F   0  0  0  0  0  0  0  0  0  0  0  0
   10.4875   -3.6792    0.0000 C   0  0  0  0  0  0  0  0  0  0  0  0
    9.5792   -4.3500    0.0000 C   0  0  0  0  0  0  0  0  0  0  0  0
    9.2000   -3.8250    0.0000 C   0  0  0  0  0  0  0  0  0  0  0  0
   10.1000   -3.1625    0.0000 C   0  0  0  0  0  0  0  0  0  0  0  0
    9.4542   -3.2292    0.0000 C   0  0  0  0  0  0  0  0  0  0  0  0
  2  5  2  0  0  0  0
  2  4  1  0  0  0  0
  3  1  1  0  0  0  0
  4  3  1  0  0  0  0
  5  1  1  0  0  0  0
  6  1  2  0  0  0  0
  7  2  1  0  0  0  0
  8  3  2  0  0  0  0
  9  7  2  0  0  0  0
 10  7  1  0  0  0  0
 11  6  1  0  0  0  0
 12 13  1  0  0  0  0
 13 10  2  0  0  0  0
 14  9  1  0  0  0  0
 14 12  2  0  0  0  0
 15 12  1  0  0  0  0
 16 11  1  0  0  0  0
 17 11  2  0  0  0  0
 18 17  1  0  0  0  0
 19 16  2  0  0  0  0
 19 20  1  0  0  0  0
 20 18  2  0  0  0  0
M  END
>  <ID>
7412676

>  <Supplier>
ChemBridge

>  <clogP>
4.457000000000000e+000

>  <RB>
2

>  <tPSA>
2.630000000000000e+001

>  <Hacc>
2

>  <Hdon>
0

>  <LogSw>
-4.116999999999998e+000

>  <Group>
1

>  <Core>
309

$$$$
5952535
 OpenBabel03312015312D

 22 24  0  0  0  0  0  0  0  0999 V2000
    0.6042    0.2833    0.0000 C   0  0  0  0  0  0  0  0  0  0  0  0
   -0.8958    0.8833    0.0000 C   0  0  0  0  0  0  0  0  0  0  0  0
   -0.4708    0.6000    0.0000 O   0  0  0  0  0  0  0  0  0  0  0  0
   -2.6958   -0.0167    0.0000 C   0  0  0  0  0  0  0  0  0  0  0  0
    0.4667    0.7833    0.0000 C   0  0  0  0  0  0  0  0  0  0  0  0
   -0.0708    0.9000    0.0000 C   0  0  0  0  0  0  0  0  0  0  0  0
    1.1000    0.1708    0.0000 C   0  0  0  0  0  0  0  0  0  0  0  0
   -2.2958    0.2833    0.0000 C   0  0  0  0  0  0  0  0  0  0  0  0
   -1.8708   -0.0167    0.0000 C   0  0  0  0  0  0  0  0  0  0  0  0
   -2.5333   -0.5000    0.0000 O   0  0  0  0  0  0  0  0  0  0  0  0
    0.2500   -0.0917    0.0000 C   0  0  0  0  0  0  0  0  0  0  0  0
   -0.7500    1.3625    0.0000 C   0  0  0  0  0  0  0  0  0  0  0  0
   -1.3708    0.7000    0.0000 C   0  0  0  0  0  0  0  0  0  0  0  0
   -0.1125   -0.4792    0.0000 N   0  0  0  0  0  0  0  0  0  0  0  0
   -1.4125    0.2000    0.0000 C   0  0  0  0  0  0  0  0  0  0  0  0
   -0.2500    1.3833    0.0000 C   0  0  0  0  0  0  0  0  0  0  0  0
   -2.2500    0.8000    0.0000 C   0  0  0  0  0  0  0  0  0  0  0  0
   -2.0333   -0.5000    0.0000 C   0  0  0  0  0  0  0  0  0  0  0  0
   -1.7958    1.0208    0.0000 C   0  0  0  0  0  0  0  0  0  0  0  0
   -3.1958    0.1458    0.0000 O   0  0  0  0  0  0  0  0  0  0  0  0
    1.4500    0.5333    0.0000 O   0  0  0  0  0  0  0  0  0  0  0  0
    1.2542   -0.3042    0.0000 N   0  0  0  0  0  0  0  0  0  0  0  0
  2  3  1  0  0  0  0
  3  6  1  0  0  0  0
  4  8  1  0  0  0  0
  5  1  2  0  0  0  0
  6  5  1  0  0  0  0
  7  1  1  0  0  0  0
  8 17  1  0  0  0  0
  8  9  2  0  0  0  0
  9 15  1  0  0  0  0
 10 18  1  0  0  0  0
 10  4  1  0  0  0  0
 11  1  1  0  0  0  0
 12 16  1  0  0  0  0
 12  2  2  0  0  0  0
 13  2  1  0  0  0  0
 14 11  3  0  0  0  0
 15 13  2  0  0  0  0
 16  6  2  0  0  0  0
 17 19  2  0  0  0  0
 18  9  1  0  0  0  0
 19 13  1  0  0  0  0
 20  4  2  0  0  0  0
 21  7  2  0  0  0  0
 22  7  1  0  0  0  0
M  END
>  <ID>
5952535

>  <Supplier>
ChemBridge

>  <clogP>
1.880000000000000e+000

>  <RB>
3

>  <tPSA>
1.063200000000000e+002

>  <Hacc>
5

>  <Hdon>
1

>  <LogSw>
-3.217000000000000e+000

>  <Group>
3

>  <Core>
109

$$$$
7490182
 OpenBabel03312015312D

 27 31  0  0  0  0  0  0  0  0999 V2000
    2.6167    1.3333    0.0000 N   0  3  0  0  0  0  0  0  0  0  0  0
    2.6167    0.5083    0.0000 C   0  0  0  0  0  0  0  0  0  0  0  0
    1.9042    0.0958    0.0000 C   0  0  0  0  0  0  0  0  0  0  0  0
    1.1917    0.5083    0.0000 N   0  0  0  0  0  0  0  0  0  0  0  0
    0.4750    0.0958    0.0000 C   0  0  3  0  0  0  0  0  0  0  0  0
    0.4750   -0.7292    0.0000 C   0  0  3  0  0  0  0  0  0  0  0  0
   -0.2375    0.5125    0.0000 C   0  0  3  0  0  0  0  0  0  0  0  0
    2.6125   -1.9667    0.0000 N   0  0  0  0  0  0  0  0  0  0  0  0
    1.9000   -0.7292    0.0000 C   0  0  0  0  0  0  0  0  0  0  0  0
    2.6125   -1.1417    0.0000 C   0  0  0  0  0  0  0  0  0  0  0  0
    3.3292    0.0958    0.0000 C   0  0  0  0  0  0  0  0  0  0  0  0
    2.6042   -3.6167    0.0000 N   0  0  0  0  0  0  0  0  0  0  0  0
   -0.6500   -1.0250    0.0000 C   0  0  3  0  0  0  0  0  0  0  0  0
   -0.9458   -0.7292    0.0000 C   0  0  3  0  0  0  0  0  0  0  0  0
    3.3292    1.7458    0.0000 O   0  5  0  0  0  0  0  0  0  0  0  0
   -0.2375   -1.1375    0.0000 C   0  0  0  0  0  0  0  0  0  0  0  0
   -0.6583   -0.2000    0.0000 C   0  0  0  0  0  0  0  0  0  0  0  0
   -0.9458    0.0958    0.0000 C   0  0  0  0  0  0  0  0  0  0  0  0
    0.0542   -1.4417    0.0000 C   0  0  0  0  0  0  0  0  0  0  0  0
    1.9000    1.7458    0.0000 O   0  0  0  0  0  0  0  0  0  0  0  0
    3.3292   -0.7375    0.0000 C   0  0  0  0  0  0  0  0  0  0  0  0
    1.8917   -2.3792    0.0000 C   0  0  0  0  0  0  0  0  0  0  0  0
    3.3250   -2.3792    0.0000 C   0  0  0  0  0  0  0  0  0  0  0  0
   -1.3625   -1.4417    0.0000 C   0  0  0  0  0  0  0  0  0  0  0  0
    3.3167   -3.2042    0.0000 C   0  0  0  0  0  0  0  0  0  0  0  0
    1.8917   -3.2000    0.0000 C   0  0  0  0  0  0  0  0  0  0  0  0
    2.5917   -4.4417    0.0000 C   0  0  0  0  0  0  0  0  0  0  0  0
  2  1  1  0  0  0  0
  3  2  1  0  0  0  0
  4  3  1  0  0  0  0
  5  4  1  0  0  0  0
  6  5  1  0  0  0  0
  7  5  1  0  0  0  0
  8 10  1  0  0  0  0
  9  3  2  0  0  0  0
  9 10  1  0  0  0  0
 10 21  2  0  0  0  0
 11  2  2  0  0  0  0
 12 25  1  0  0  0  0
 13 17  1  0  0  0  0
 14 18  1  0  0  0  0
 15  1  1  0  0  0  0
 16  6  1  0  0  0  0
 16 14  1  0  0  0  0
 17  7  1  0  0  0  0
 18  7  1  0  0  0  0
 19  6  1  0  0  0  0
 19 13  1  0  0  0  0
 20  1  2  0  0  0  0
 21 11  1  0  0  0  0
 22  8  1  0  0  0  0
 23  8  1  0  0  0  0
 24 14  1  0  0  0  0
 24 13  1  0  0  0  0
 25 23  1  0  0  0  0
 26 22  1  0  0  0  0
 26 12  1  0  0  0  0
 27 12  1  0  0  0  0
M  CHG  2   1   1  15  -1
M  END
>  <ID>
7490182

>  <Supplier>
ChemBridge

>  <clogP>
4.336000000000000e+000

>  <RB>
3

>  <tPSA>
6.164999999999998e+001

>  <Hacc>
3

>  <Hdon>
1

>  <LogSw>
-5.003000000000000e+000

>  <Group>
1

>  <Core>
162

$$$$
7114669
 OpenBabel03312015312D

 20 22  0  0  0  0  0  0  0  0999 V2000
   -0.9833   -4.4167    0.0000 C   0  0  0  0  0  0  0  0  0  0  0  0
   -2.6208   -2.1667    0.0000 N   0  0  0  0  0  0  0  0  0  0  0  0
   -2.6125   -6.6750    0.0000 N   0  0  0  0  0  0  0  0  0  0  0  0
    5.9375  -11.6042    0.0000 C   0  0  0  0  0  0  0  0  0  0  0  0
   -5.2708   -5.8167    0.0000 C   0  0  0  0  0  0  0  0  0  0  0  0
    7.3167   -9.2042    0.0000 N   0  0  0  0  0  0  0  0  0  0  0  0
   -5.2708   -3.0292    0.0000 C   0  0  0  0  0  0  0  0  0  0  0  0
    7.0667  -14.1417    0.0000 N   0  0  0  0  0  0  0  0  0  0  0  0
    1.7875   -4.4167    0.0000 S   0  0  0  0  0  0  0  0  0  0  0  0
    3.1917  -11.9125    0.0000 S   0  0  0  0  0  0  0  0  0  0  0  0
    5.9375   -6.8167    0.0000 C   0  0  0  0  0  0  0  0  0  0  0  0
    5.0167  -16.0000    0.0000 C   0  0  0  0  0  0  0  0  0  0  0  0
    2.6167  -14.6167    0.0000 C   0  0  0  0  0  0  0  0  0  0  0  0
    7.3167   -4.4167    0.0000 O   0  0  0  0  0  0  0  0  0  0  0  0
    3.1667   -6.8167    0.0000 C   0  0  0  0  0  0  0  0  0  0  0  0
   -1.7583   -9.3042    0.0000 C   0  0  0  0  0  0  0  0  0  0  0  0
   -7.6542   -7.2000    0.0000 C   0  0  0  0  0  0  0  0  0  0  0  0
   -7.6542   -1.6542    0.0000 C   0  0  0  0  0  0  0  0  0  0  0  0
  -10.0500   -5.8167    0.0000 C   0  0  0  0  0  0  0  0  0  0  0  0
  -10.0417   -3.0417    0.0000 C   0  0  0  0  0  0  0  0  0  0  0  0
  2  1  2  0  0  0  0
  3  1  1  0  0  0  0
  4  6  1  0  0  0  0
  5  3  1  0  0  0  0
  5  7  1  0  0  0  0
  6 11  1  0  0  0  0
  7  2  1  0  0  0  0
  8  4  2  0  0  0  0
  9  1  1  0  0  0  0
 10  4  1  0  0  0  0
 11 15  1  0  0  0  0
 12  8  1  0  0  0  0
 12 13  2  0  0  0  0
 13 10  1  0  0  0  0
 14 11  2  0  0  0  0
 15  9  1  0  0  0  0
 16  3  1  0  0  0  0
 17  5  2  0  0  0  0
 18  7  2  0  0  0  0
 19 17  1  0  0  0  0
 19 20  2  0  0  0  0
 20 18  1  0  0  0  0
M  END
>  <ID>
7114669

>  <Supplier>
ChemBridge

>  <clogP>
2.500000000000000e+000

>  <RB>
4

>  <tPSA>
5.981000000000002e+001

>  <Hacc>
4

>  <Hdon>
1

>  <LogSw>
-3.555000000000000e+000

>  <Group>
2

>  <Core>
012

$$$$
5729125
 OpenBabel03312015312D

 18 19  0  0  0  0  0  0  0  0999 V2000
   17.1042   -2.7500    0.0000 C   0  0  0  0  0  0  0  0  0  0  0  0
   17.7542   -2.3500    0.0000 N   0  0  0  0  0  0  0  0  0  0  0  0
   16.4542   -2.3542    0.0000 C   0  0  0  0  0  0  0  0  0  0  0  0
   19.0542   -1.6042    0.0000 N   0  0  0  0  0  0  0  0  0  0  0  0
   15.8042   -2.7500    0.0000 C   0  0  0  0  0  0  0  0  0  0  0  0
   17.1042   -3.5000    0.0000 O   0  0  0  0  0  0  0  0  0  0  0  0
   18.4042   -2.7500    0.0000 C   0  0  0  0  0  0  0  0  0  0  0  0
   17.7542   -1.6042    0.0000 C   0  0  0  0  0  0  0  0  0  0  0  0
   15.1542   -2.3500    0.0000 C   0  0  0  0  0  0  0  0  0  0  0  0
   18.4042   -1.2500    0.0000 C   0  0  0  0  0  0  0  0  0  0  0  0
   19.0542   -2.3542    0.0000 C   0  0  0  0  0  0  0  0  0  0  0  0
   15.1667   -1.6000    0.0000 O   0  0  0  0  0  0  0  0  0  0  0  0
   19.7042   -1.2500    0.0000 C   0  0  0  0  0  0  0  0  0  0  0  0
   15.8042   -3.5000    0.0000 C   0  0  0  0  0  0  0  0  0  0  0  0
   14.5167   -2.7167    0.0000 C   0  0  0  0  0  0  0  0  0  0  0  0
   14.5167   -1.2500    0.0000 C   0  0  0  0  0  0  0  0  0  0  0  0
   15.1542   -3.8500    0.0000 C   0  0  0  0  0  0  0  0  0  0  0  0
   14.5042   -3.4667    0.0000 C   0  0  0  0  0  0  0  0  0  0  0  0
  2  1  1  0  0  0  0
  3  1  1  0  0  0  0
  4 10  1  0  0  0  0
  5  3  1  0  0  0  0
  6  1  2  0  0  0  0
  7  2  1  0  0  0  0
  8  2  1  0  0  0  0
  9  5  2  0  0  0  0
 10  8  1  0  0  0  0
 11  7  1  0  0  0  0
 11  4  1  0  0  0  0
 12  9  1  0  0  0  0
 13  4  1  0  0  0  0
 14  5  1  0  0  0  0
 15  9  1  0  0  0  0
 15 18  2  0  0  0  0
 16 12  1  0  0  0  0
 17 14  2  0  0  0  0
 18 17  1  0  0  0  0
M  END
>  <ID>
5729125

>  <Supplier>
ChemBridge

>  <clogP>
1.250000000000000e+000

>  <RB>
2

>  <tPSA>
3.278000000000000e+001

>  <Hacc>
3

>  <Hdon>
0

>  <LogSw>
-2.079000000000000e+000

>  <Group>
3

>  <Core>
165

$$$$
5820158
 OpenBabel03312015312D

 32 37  0  0  0  0  0  0  0  0999 V2000
   -1.7708   -0.3042    0.0000 N   0  0  0  0  0  0  0  0  0  0  0  0
   -2.7333   -0.6792    0.0000 C   0  0  0  0  0  0  0  0  0  0  0  0
   -1.8208    0.7625    0.0000 C   0  0  0  0  0  0  0  0  0  0  0  0
   -4.1458    2.3208    0.0000 C   0  0  0  0  0  0  0  0  0  0  0  0
   -3.2500    0.3958    0.0000 C   0  0  3  0  0  0  0  0  0  0  0  0
   -3.0000    0.8000    0.0000 C   0  0  3  0  0  0  0  0  0  0  0  0
   -3.9625    1.3833    0.0000 C   0  0  3  0  0  0  0  0  0  0  0  0
   -4.2333    0.9333    0.0000 C   0  0  3  0  0  0  0  0  0  0  0  0
   -4.1958    3.3708    0.0000 C   0  0  0  0  0  0  0  0  0  0  0  0
   -0.9125   -0.9000    0.0000 C   0  0  0  0  0  0  0  0  0  0  0  0
   -5.1208    0.9333    0.0000 C   0  0  0  0  0  0  0  0  0  0  0  0
   -5.4125    0.4500    0.0000 C   0  0  0  0  0  0  0  0  0  0  0  0
   -3.0708   -1.6542    0.0000 O   0  0  0  0  0  0  0  0  0  0  0  0
   -0.9958    1.4208    0.0000 O   0  0  0  0  0  0  0  0  0  0  0  0
    0.0292   -0.4500    0.0000 C   0  0  0  0  0  0  0  0  0  0  0  0
   -5.1208    3.8583    0.0000 C   0  0  0  0  0  0  0  0  0  0  0  0
   -3.3125    3.9458    0.0000 C   0  0  0  0  0  0  0  0  0  0  0  0
    0.9000   -1.0167    0.0000 C   0  0  0  0  0  0  0  0  0  0  0  0
   -0.9708   -1.9500    0.0000 C   0  0  0  0  0  0  0  0  0  0  0  0
   -0.1125   -2.5292    0.0000 C   0  0  0  0  0  0  0  0  0  0  0  0
   -5.9958    3.2958    0.0000 C   0  0  0  0  0  0  0  0  0  0  0  0
   -5.1958    4.9000    0.0000 C   0  0  0  0  0  0  0  0  0  0  0  0
   -2.3625    3.4833    0.0000 C   0  0  0  0  0  0  0  0  0  0  0  0
   -3.3625    4.9792    0.0000 C   0  0  0  0  0  0  0  0  0  0  0  0
    0.8500   -2.0667    0.0000 C   0  0  0  0  0  0  0  0  0  0  0  0
    1.8167   -0.5375    0.0000 C   0  0  0  0  0  0  0  0  0  0  0  0
   -1.4958    4.0542    0.0000 C   0  0  0  0  0  0  0  0  0  0  0  0
   -2.5000    5.5542    0.0000 C   0  0  0  0  0  0  0  0  0  0  0  0
   -6.9292    3.7500    0.0000 C   0  0  0  0  0  0  0  0  0  0  0  0
   -6.1292    5.3542    0.0000 C   0  0  0  0  0  0  0  0  0  0  0  0
   -1.5625    5.1167    0.0000 C   0  0  0  0  0  0  0  0  0  0  0  0
   -7.0042    4.7792    0.0000 C   0  0  0  0  0  0  0  0  0  0  0  0
  2  1  1  0  0  0  0
  3  1  1  0  0  0  0
  4  7  1  0  0  0  0
  4  8  1  0  0  0  0
  5  2  1  0  0  0  0
  6  3  1  0  0  0  0
  6  5  1  0  0  0  0
  7  6  1  0  0  0  0
  8  5  1  0  0  0  0
  9  4  2  0  0  0  0
 10  1  1  0  0  0  0
 11  7  1  0  0  0  0
 11 12  2  0  0  0  0
 12  8  1  0  0  0  0
 13  2  2  0  0  0  0
 14  3  2  0  0  0  0
 15 10  1  0  0  0  0
 16  9  1  0  0  0  0
 17  9  1  0  0  0  0
 18 15  2  0  0  0  0
 18 25  1  0  0  0  0
 19 10  2  0  0  0  0
 20 19  1  0  0  0  0
 21 16  1  0  0  0  0
 22 16  2  0  0  0  0
 23 17  2  0  0  0  0
 24 17  1  0  0  0  0
 25 20  2  0  0  0  0
 26 18  1  0  0  0  0
 27 23  1  0  0  0  0
 27 31  2  0  0  0  0
 28 24  2  0  0  0  0
 29 21  2  0  0  0  0
 30 22  1  0  0  0  0
 31 28  1  0  0  0  0
 32 30  2  0  0  0  0
 32 29  1  0  0  0  0
M  END
>  <ID>
5820158

>  <Supplier>
ChemBridge

>  <clogP>
4.230000000000000e+000

>  <RB>
3

>  <tPSA>
3.738000000000000e+001

>  <Hacc>
2

>  <Hdon>
0

>  <LogSw>
-5.856000000000000e+000

>  <Group>
2

>  <Core>
311

$$$$
7121198
 OpenBabel03312015312D

 22 24  0  0  0  0  0  0  0  0999 V2000
    7.6917   -2.7167    0.0000 N   0  0  0  0  0  0  0  0  0  0  0  0
    7.6917   -3.5417    0.0000 C   0  0  0  0  0  0  0  0  0  0  0  0
    6.9042   -2.4667    0.0000 C   0  0  0  0  0  0  0  0  0  0  0  0
    6.9042   -3.8000    0.0000 S   0  0  0  0  0  0  0  0  0  0  0  0
    6.4167   -3.1292    0.0000 C   0  0  0  0  0  0  0  0  0  0  0  0
    8.3542   -2.2375    0.0000 C   0  0  0  0  0  0  0  0  0  0  0  0
    8.3542   -4.0292    0.0000 O   0  0  0  0  0  0  0  0  0  0  0  0
    3.9667   -4.5667    0.0000 C   0  0  0  0  0  0  0  0  0  0  0  0
    5.5917   -3.1375    0.0000 C   0  0  0  0  0  0  0  0  0  0  0  0
    6.6500   -1.6792    0.0000 O   0  0  0  0  0  0  0  0  0  0  0  0
    5.1917   -3.8500    0.0000 C   0  0  0  0  0  0  0  0  0  0  0  0
    4.3042   -5.3167    0.0000 O   0  0  0  0  0  0  0  0  0  0  0  0
    8.2667   -1.4167    0.0000 C   0  0  0  0  0  0  0  0  0  0  0  0
    4.3667   -3.8625    0.0000 C   0  0  0  0  0  0  0  0  0  0  0  0
    3.1500   -4.6667    0.0000 C   0  0  0  0  0  0  0  0  0  0  0  0
    3.7000   -5.8750    0.0000 C   0  0  0  0  0  0  0  0  0  0  0  0
    2.9875   -5.4667    0.0000 C   0  0  0  0  0  0  0  0  0  0  0  0
    7.5125   -1.0792    0.0000 Cl  0  0  0  0  0  0  0  0  0  0  0  0
    9.1042   -2.5750    0.0000 C   0  0  0  0  0  0  0  0  0  0  0  0
    8.9375   -0.9292    0.0000 C   0  0  0  0  0  0  0  0  0  0  0  0
    9.7750   -2.0917    0.0000 C   0  0  0  0  0  0  0  0  0  0  0  0
    9.6917   -1.2667    0.0000 C   0  0  0  0  0  0  0  0  0  0  0  0
  2  1  1  0  0  0  0
  3  1  1  0  0  0  0
  4  2  1  0  0  0  0
  4  5  1  0  0  0  0
  5  3  1  0  0  0  0
  6  1  1  0  0  0  0
  7  2  2  0  0  0  0
  8 14  1  0  0  0  0
  9  5  2  0  0  0  0
 10  3  2  0  0  0  0
 11  9  1  0  0  0  0
 12  8  1  0  0  0  0
 13  6  1  0  0  0  0
 14 11  2  0  0  0  0
 15  8  2  0  0  0  0
 16 12  1  0  0  0  0
 17 15  1  0  0  0  0
 17 16  2  0  0  0  0
 18 13  1  0  0  0  0
 19  6  2  0  0  0  0
 20 13  2  0  0  0  0
 21 19  1  0  0  0  0
 22 21  2  0  0  0  0
 22 20  1  0  0  0  0
M  END
>  <ID>
7121198

>  <Supplier>
ChemBridge

>  <clogP>
5.260000000000000e+000

>  <RB>
3

>  <tPSA>
5.052000000000000e+001

>  <Hacc>
3

>  <Hdon>
0

>  <LogSw>
-6.111000000000000e+000

>  <Group>
2

>  <Core>
002

$$$$
6509292
 OpenBabel03312015312D

 31 34  0  0  0  0  0  0  0  0999 V2000
   -0.6000   -4.3667    0.0000 S   0  0  0  0  0  0  0  0  0  0  0  0
    0.1167   -3.9667    0.0000 N   0  0  0  0  0  0  0  0  0  0  0  0
    2.2375   -2.7000    0.0000 C   0  0  0  0  0  0  0  0  0  0  0  0
    1.5167   -3.1042    0.0000 N   0  0  0  0  0  0  0  0  0  0  0  0
    2.2375   -1.7542    0.0000 C   0  0  0  0  0  0  0  0  0  0  0  0
   -1.4208   -4.4000    0.0000 C   0  0  0  0  0  0  0  0  0  0  0  0
    3.0500   -1.2875    0.0000 C   0  0  0  0  0  0  0  0  0  0  0  0
   -0.1708   -5.1000    0.0000 O   0  0  0  0  0  0  0  0  0  0  0  0
   -0.8000   -5.1667    0.0000 O   0  0  0  0  0  0  0  0  0  0  0  0
    0.8500   -4.3542    0.0000 C   0  0  0  0  0  0  0  0  0  0  0  0
    0.0792   -3.1500    0.0000 C   0  0  0  0  0  0  0  0  0  0  0  0
   -4.3208   -3.7167    0.0000 C   0  0  0  0  0  0  0  0  0  0  0  0
    1.5500   -3.9167    0.0000 C   0  0  0  0  0  0  0  0  0  0  0  0
    0.7792   -2.7167    0.0000 C   0  0  0  0  0  0  0  0  0  0  0  0
   -3.9125   -4.4167    0.0000 N   0  0  0  0  0  0  0  0  0  0  0  0
    3.0500   -3.1542    0.0000 O   0  0  0  0  0  0  0  0  0  0  0  0
   -3.9208   -3.0167    0.0000 O   0  0  0  0  0  0  0  0  0  0  0  0
   -1.8500   -3.6667    0.0000 C   0  0  0  0  0  0  0  0  0  0  0  0
   -1.8458   -5.1167    0.0000 C   0  0  0  0  0  0  0  0  0  0  0  0
    3.0500   -0.3542    0.0000 C   0  0  0  0  0  0  0  0  0  0  0  0
   -3.0958   -4.4167    0.0000 C   0  0  0  0  0  0  0  0  0  0  0  0
   -2.6958   -3.6875    0.0000 C   0  0  0  0  0  0  0  0  0  0  0  0
   -2.6625   -5.1167    0.0000 C   0  0  0  0  0  0  0  0  0  0  0  0
    1.4167   -1.2875    0.0000 C   0  0  0  0  0  0  0  0  0  0  0  0
    3.8667   -1.7667    0.0000 C   0  0  0  0  0  0  0  0  0  0  0  0
    1.4167   -0.3500    0.0000 C   0  0  0  0  0  0  0  0  0  0  0  0
   -5.1583   -3.7375    0.0000 C   0  0  0  0  0  0  0  0  0  0  0  0
    2.2375    0.1000    0.0000 C   0  0  0  0  0  0  0  0  0  0  0  0
    3.8667    0.1208    0.0000 C   0  0  0  0  0  0  0  0  0  0  0  0
    4.7000   -1.3000    0.0000 C   0  0  0  0  0  0  0  0  0  0  0  0
    4.6875   -0.3500    0.0000 C   0  0  0  0  0  0  0  0  0  0  0  0
  2  1  1  0  0  0  0
  3  4  1  0  0  0  0
  4 14  1  0  0  0  0
  4 13  1  0  0  0  0
  5  3  1  0  0  0  0
  6  1  1  0  0  0  0
  7  5  1  0  0  0  0
  8  1  2  0  0  0  0
  9  1  2  0  0  0  0
 10  2  1  0  0  0  0
 11  2  1  0  0  0  0
 12 15  1  0  0  0  0
 13 10  1  0  0  0  0
 14 11  1  0  0  0  0
 15 21  1  0  0  0  0
 16  3  2  0  0  0  0
 17 12  2  0  0  0  0
 18  6  1  0  0  0  0
 19  6  2  0  0  0  0
 20  7  2  0  0  0  0
 20 28  1  0  0  0  0
 21 23  2  0  0  0  0
 21 22  1  0  0  0  0
 22 18  2  0  0  0  0
 23 19  1  0  0  0  0
 24  5  2  0  0  0  0
 25  7  1  0  0  0  0
 26 24  1  0  0  0  0
 27 12  1  0  0  0  0
 28 26  2  0  0  0  0
 29 20  1  0  0  0  0
 29 31  2  0  0  0  0
 30 25  2  0  0  0  0
 31 30  1  0  0  0  0
M  END
>  <ID>
6509292

>  <Supplier>
ChemBridge

>  <clogP>
3.100000000000000e+000

>  <RB>
3

>  <tPSA>
8.679000000000002e+001

>  <Hacc>
5

>  <Hdon>
1

>  <LogSw>
-5.037000000000000e+000

>  <Group>
3

>  <Core>
234

$$$$
5789785
 OpenBabel03312015312D

 24 28  0  0  0  0  0  0  0  0999 V2000
   -1.8333   -1.3375    0.0000 N   0  0  0  0  0  0  0  0  0  0  0  0
   -1.1125   -1.9000    0.0000 C   0  0  0  0  0  0  0  0  0  0  0  0
   -0.2708   -1.5542    0.0000 C   0  0  3  0  0  0  0  0  0  0  0  0
   -1.7958   -0.4375    0.0000 C   0  0  0  0  0  0  0  0  0  0  0  0
   -2.6958   -1.5792    0.0000 C   0  0  0  0  0  0  0  0  0  0  0  0
   -3.2125   -0.8167    0.0000 C   0  0  3  0  0  0  0  0  0  0  0  0
   -2.6500   -0.1167    0.0000 C   0  0  0  0  0  0  0  0  0  0  0  0
    0.6000   -1.8292    0.0000 C   0  0  0  0  0  0  0  0  0  0  0  0
   -0.3708   -0.6500    0.0000 C   0  0  0  0  0  0  0  0  0  0  0  0
    0.5375   -1.5542    0.0000 C   0  0  0  0  0  0  0  0  0  0  0  0
    1.3375   -1.2542    0.0000 C   0  0  3  0  0  0  0  0  0  0  0  0
    0.3542   -0.0667    0.0000 C   0  0  3  0  0  0  0  0  0  0  0  0
    1.4667   -0.8000    0.0000 C   0  0  3  0  0  0  0  0  0  0  0  0
   -1.2333   -2.8000    0.0000 O   0  0  0  0  0  0  0  0  0  0  0  0
   -1.0333    0.0833    0.0000 O   0  0  0  0  0  0  0  0  0  0  0  0
   -4.1125   -0.8167    0.0000 C   0  0  0  0  0  0  0  0  0  0  0  0
    2.4000   -1.2292    0.0000 C   0  0  0  0  0  0  0  0  0  0  0  0
    1.2042   -0.4167    0.0000 C   0  0  0  0  0  0  0  0  0  0  0  0
    1.3000   -0.0167    0.0000 C   0  0  0  0  0  0  0  0  0  0  0  0
   -4.5708   -0.0292    0.0000 C   0  0  0  0  0  0  0  0  0  0  0  0
   -4.5708   -1.6000    0.0000 C   0  0  0  0  0  0  0  0  0  0  0  0
   -5.4708   -1.6000    0.0000 C   0  0  0  0  0  0  0  0  0  0  0  0
   -5.4708   -0.0292    0.0000 C   0  0  0  0  0  0  0  0  0  0  0  0
   -5.9333   -0.8167    0.0000 C   0  0  0  0  0  0  0  0  0  0  0  0
  2  1  1  0  0  0  0
  3  2  1  0  0  0  0
  4  1  1  0  0  0  0
  5  1  1  0  0  0  0
  6  5  1  0  0  0  0
  7  4  1  0  0  0  0
  7  6  1  0  0  0  0
  8  3  1  0  0  0  0
  9  3  1  0  0  0  0
 10  3  1  0  0  0  0
 11  8  1  0  0  0  0
 11 17  1  0  0  0  0
 11 18  1  0  0  0  0
 12  9  1  0  0  0  0
 12 19  1  0  0  0  0
 13 10  1  0  0  0  0
 14  2  2  0  0  0  0
 15  4  2  0  0  0  0
 16  6  1  0  0  0  0
 17 13  1  0  0  0  0
 18 12  1  0  0  0  0
 19 13  1  0  0  0  0
 20 16  2  0  0  0  0
 21 16  1  0  0  0  0
 22 21  2  0  0  0  0
 23 20  1  0  0  0  0
 24 22  1  0  0  0  0
 24 23  2  0  0  0  0
M  END
>  <ID>
5789785

>  <Supplier>
ChemBridge

>  <clogP>
4.180000000000000e+000

>  <RB>
2

>  <tPSA>
3.738000000000000e+001

>  <Hacc>
2

>  <Hdon>
0

>  <LogSw>
-5.127999999999997e+000

>  <Group>
3

$$$$
5789784
 OpenBabel03312015312D

 20 22  0  0  0  0  0  0  0  0999 V2000
    3.4417    1.5250    0.0000 N   0  0  0  0  0  0  0  0  0  0  0  0
    2.7042    1.6458    0.0000 C   0  0  3  0  0  0  0  0  0  0  0  0
    3.9750    2.0500    0.0000 C   0  0  0  0  0  0  0  0  0  0  0  0
    1.6250    2.2083    0.0000 C   0  0  3  0  0  0  0  0  0  0  0  0
    4.6417    1.7083    0.0000 C   0  0  0  0  0  0  0  0  0  0  0  0
    4.5167    0.9708    0.0000 N   0  0  0  0  0  0  0  0  0  0  0  0
    2.1667    1.1208    0.0000 C   0  0  3  0  0  0  0  0  0  0  0  0
    2.3667    2.3208    0.0000 O   0  0  0  0  0  0  0  0  0  0  0  0
    3.7792    0.8583    0.0000 C   0  0  0  0  0  0  0  0  0  0  0  0
    1.5042    1.4625    0.0000 C   0  0  3  0  0  0  0  0  0  0  0  0
    5.2750    2.1083    0.0000 C   0  0  0  0  0  0  0  0  0  0  0  0
    3.9417    2.8000    0.0000 N   0  0  0  0  0  0  0  0  0  0  0  0
    1.1000    2.7375    0.0000 C   0  0  0  0  0  0  0  0  0  0  0  0
    5.2417    2.8583    0.0000 N   0  0  0  0  0  0  0  0  0  0  0  0
    4.5750    3.2083    0.0000 C   0  0  0  0  0  0  0  0  0  0  0  0
    1.2917    3.4583    0.0000 O   0  0  0  0  0  0  0  0  0  0  0  0
    2.2792    0.3750    0.0000 O   0  0  0  0  0  0  0  0  0  0  0  0
    0.8292    1.1333    0.0000 O   0  0  0  0  0  0  0  0  0  0  0  0
    5.9417    1.7708    0.0000 N   0  0  0  0  0  0  0  0  0  0  0  0
    0.3750    2.5458    0.0000 O   0  0  0  0  0  0  0  0  0  0  0  0
  2  1  1  0  0  0  0
  3  1  1  0  0  0  0
  4  8  1  0  0  0  0
  4 10  1  0  0  0  0
  5  3  2  0  0  0  0
  6  9  2  0  0  0  0
  6  5  1  0  0  0  0
  7  2  1  0  0  0  0
  8  2  1  0  0  0  0
  9  1  1  0  0  0  0
 10  7  1  0  0  0  0
 11  5  1  0  0  0  0
 12  3  1  0  0  0  0
 13  4  1  0  0  0  0
 14 15  1  0  0  0  0
 14 11  2  0  0  0  0
 15 12  2  0  0  0  0
 16 13  2  0  0  0  0
 17  7  1  0  0  0  0
 18 10  1  0  0  0  0
 19 11  1  0  0  0  0
 20 13  1  0  0  0  0
M  END
>  <ID>
5789784

>  <Supplier>
ChemBridge

>  <clogP>
-2.750000000000000e+000

>  <RB>
2

>  <tPSA>
1.566100000000000e+002

>  <Hacc>
9

>  <Hdon>
4

>  <LogSw>
1.820000000000000e-001

>  <Group>
1

$$$$
7121194
 OpenBabel03312015312D

 24 27  0  0  0  0  0  0  0  0999 V2000
    0.1375   -0.6500    0.0000 S   0  0  0  0  0  0  0  0  0  0  0  0
   -0.5625   -0.0042    0.0000 C   0  0  0  0  0  0  0  0  0  0  0  0
   -1.4708   -0.1667    0.0000 C   0  0  3  0  0  0  0  0  0  0  0  0
    0.9375   -0.1667    0.0000 C   0  0  0  0  0  0  0  0  0  0  0  0
   -0.1833    0.8333    0.0000 N   0  0  0  0  0  0  0  0  0  0  0  0
    0.7375    0.7500    0.0000 N   0  0  0  0  0  0  0  0  0  0  0  0
    1.7375   -0.6292    0.0000 N   0  0  0  0  0  0  0  0  0  0  0  0
    1.4542   -1.5042    0.0000 C   0  0  0  0  0  0  0  0  0  0  0  0
   -2.2333   -0.4167    0.0000 C   0  0  0  0  0  0  0  0  0  0  0  0
   -1.3208    0.7000    0.0000 C   0  0  0  0  0  0  0  0  0  0  0  0
   -2.1208   -1.0042    0.0000 C   0  0  0  0  0  0  0  0  0  0  0  0
   -2.8458   -0.6667    0.0000 C   0  0  3  0  0  0  0  0  0  0  0  0
   -3.0125   -0.0875    0.0000 C   0  0  3  0  0  0  0  0  0  0  0  0
   -1.9833    1.0000    0.0000 C   0  0  3  0  0  0  0  0  0  0  0  0
    0.5792   -1.8292    0.0000 O   0  0  0  0  0  0  0  0  0  0  0  0
   -2.6708    0.4333    0.0000 C   0  0  0  0  0  0  0  0  0  0  0  0
   -3.0208    0.7708    0.0000 C   0  0  0  0  0  0  0  0  0  0  0  0
   -3.8125   -0.9000    0.0000 C   0  0  0  0  0  0  0  0  0  0  0  0
    2.1917   -2.0500    0.0000 C   0  0  0  0  0  0  0  0  0  0  0  0
    3.0375   -1.6792    0.0000 N   0  0  0  0  0  0  0  0  0  0  0  0
    3.7792   -2.2167    0.0000 C   0  0  0  0  0  0  0  0  0  0  0  0
    3.1292   -0.7542    0.0000 C   0  0  0  0  0  0  0  0  0  0  0  0
    3.6875   -3.1167    0.0000 C   0  0  0  0  0  0  0  0  0  0  0  0
    3.9542   -0.3875    0.0000 C   0  0  0  0  0  0  0  0  0  0  0  0
  2  1  1  0  0  0  0
  3  2  1  0  0  0  0
  4  1  1  0  0  0  0
  5  2  2  0  0  0  0
  5  6  1  0  0  0  0
  6  4  2  0  0  0  0
  7  4  1  0  0  0  0
  8  7  1  0  0  0  0
  9  3  1  0  0  0  0
 10  3  1  0  0  0  0
 11  3  1  0  0  0  0
 12 11  1  0  0  0  0
 13  9  1  0  0  0  0
 14 10  1  0  0  0  0
 15  8  2  0  0  0  0
 16 12  1  0  0  0  0
 16 14  1  0  0  0  0
 17 14  1  0  0  0  0
 17 13  1  0  0  0  0
 18 12  1  0  0  0  0
 18 13  1  0  0  0  0
 19  8  1  0  0  0  0
 20 19  1  0  0  0  0
 21 20  1  0  0  0  0
 22 20  1  0  0  0  0
 23 21  1  0  0  0  0
 24 22  1  0  0  0  0
M  END
>  <ID>
7121194

>  <Supplier>
ChemBridge

>  <clogP>
1.520000000000000e+000

>  <RB>
3

>  <tPSA>
5.811999999999998e+001

>  <Hacc>
4

>  <Hdon>
1

>  <LogSw>
-3.039000000000000e+000

>  <Group>
3

>  <Core>
246

$$$$
6238386
 OpenBabel03312015312D

 31 34  0  0  0  0  0  0  0  0999 V2000
    3.2750   -2.3792    0.0000 C   0  0  0  0  0  0  0  0  0  0  0  0
    1.8917   -2.3792    0.0000 C   0  0  0  0  0  0  0  0  0  0  0  0
    2.5792   -1.9792    0.0000 C   0  0  3  0  0  0  0  0  0  0  0  0
    1.8917   -3.1792    0.0000 C   0  0  0  0  0  0  0  0  0  0  0  0
    3.2750   -3.1792    0.0000 C   0  0  0  0  0  0  0  0  0  0  0  0
    2.5792   -3.5792    0.0000 N   0  0  0  0  0  0  0  0  0  0  0  0
    1.2042   -1.9792    0.0000 C   0  0  0  0  0  0  0  0  0  0  0  0
    2.5750   -0.4042    0.0000 C   0  0  0  0  0  0  0  0  0  0  0  0
    3.9667   -1.9792    0.0000 C   0  0  0  0  0  0  0  0  0  0  0  0
    1.2042   -3.5792    0.0000 C   0  0  0  0  0  0  0  0  0  0  0  0
    0.5167   -3.1792    0.0000 C   0  0  0  0  0  0  0  0  0  0  0  0
    0.5167   -2.3792    0.0000 C   0  0  0  0  0  0  0  0  0  0  0  0
    4.6625   -2.3792    0.0000 O   0  0  0  0  0  0  0  0  0  0  0  0
    3.2667   -0.0125    0.0000 C   0  0  0  0  0  0  0  0  0  0  0  0
    1.8875   -0.0125    0.0000 C   0  0  0  0  0  0  0  0  0  0  0  0
    1.2042   -1.1875    0.0000 O   0  0  0  0  0  0  0  0  0  0  0  0
    3.9667   -1.1792    0.0000 O   0  0  0  0  0  0  0  0  0  0  0  0
    6.8167   -2.0417    0.0000 O   0  0  0  0  0  0  0  0  0  0  0  0
    3.9667   -3.5875    0.0000 C   0  0  0  0  0  0  0  0  0  0  0  0
    5.3500   -1.9792    0.0000 C   0  0  0  0  0  0  0  0  0  0  0  0
    1.1667   -0.4250    0.0000 F   0  0  0  0  0  0  0  0  0  0  0  0
    3.9625   -0.4042    0.0000 Cl  0  0  0  0  0  0  0  0  0  0  0  0
    6.0625   -2.3875    0.0000 C   0  0  3  0  0  0  0  0  0  0  0  0
    0.1125   -3.8792    0.0000 C   0  0  0  0  0  0  0  0  0  0  0  0
   -0.2750   -3.2917    0.0000 C   0  0  0  0  0  0  0  0  0  0  0  0
    2.5750    1.1875    0.0000 C   0  0  0  0  0  0  0  0  0  0  0  0
    3.2667    0.7875    0.0000 C   0  0  0  0  0  0  0  0  0  0  0  0
    1.8875    0.7875    0.0000 C   0  0  0  0  0  0  0  0  0  0  0  0
    7.3667   -2.6542    0.0000 C   0  0  0  0  0  0  0  0  0  0  0  0
    6.1542   -3.2042    0.0000 C   0  0  0  0  0  0  0  0  0  0  0  0
    6.9625   -3.3667    0.0000 C   0  0  0  0  0  0  0  0  0  0  0  0
  2  3  1  0  0  0  0
  2  4  2  0  0  0  0
  3  1  1  0  0  0  0
  4  6  1  0  0  0  0
  5  1  2  0  0  0  0
  6  5  1  0  0  0  0
  7  2  1  0  0  0  0
  8  3  1  0  0  0  0
  9  1  1  0  0  0  0
 10  4  1  0  0  0  0
 11 10  1  0  0  0  0
 12  7  1  0  0  0  0
 12 11  1  0  0  0  0
 13  9  1  0  0  0  0
 14  8  2  0  0  0  0
 15  8  1  0  0  0  0
 16  7  2  0  0  0  0
 17  9  2  0  0  0  0
 18 23  1  0  0  0  0
 19  5  1  0  0  0  0
 20 13  1  0  0  0  0
 21 15  1  0  0  0  0
 22 14  1  0  0  0  0
 23 20  1  0  0  0  0
 24 11  1  0  0  0  0
 25 11  1  0  0  0  0
 26 28  1  0  0  0  0
 27 14  1  0  0  0  0
 27 26  2  0  0  0  0
 28 15  2  0  0  0  0
 29 18  1  0  0  0  0
 29 31  1  0  0  0  0
 30 23  1  0  0  0  0
 31 30  1  0  0  0  0
M  END
>  <ID>
6238386

>  <Supplier>
ChemBridge

>  <clogP>
4.850000000000000e+000

>  <RB>
5

>  <tPSA>
6.463000000000000e+001

>  <Hacc>
4

>  <Hdon>
1

>  <LogSw>
-5.599000000000000e+000

>  <Group>
3

>  <Core>
085

$$$$
9077069
 OpenBabel03312015312D

 27 29  0  0  0  0  0  0  0  0999 V2000
    4.0167    2.8708    0.0000 C   0  0  0  0  0  0  0  0  0  0  0  0
    2.8667    3.2458    0.0000 N   0  0  0  0  0  0  0  0  0  0  0  0
    2.8667    2.4958    0.0000 N   0  0  0  0  0  0  0  0  0  0  0  0
    3.5792    3.4708    0.0000 N   0  0  0  0  0  0  0  0  0  0  0  0
    3.5792    2.2583    0.0000 C   0  0  0  0  0  0  0  0  0  0  0  0
    4.7667    2.8708    0.0000 C   0  0  0  0  0  0  0  0  0  0  0  0
    5.8917    0.9208    0.0000 C   0  0  0  0  0  0  0  0  0  0  0  0
    6.2667    1.5708    0.0000 C   0  0  0  0  0  0  0  0  0  0  0  0
    5.1417    2.2208    0.0000 N   0  0  0  0  0  0  0  0  0  0  0  0
    5.8917    2.2208    0.0000 C   0  0  0  0  0  0  0  0  0  0  0  0
    2.2542    2.0500    0.0000 C   0  0  0  0  0  0  0  0  0  0  0  0
    5.1417    3.5208    0.0000 O   0  0  0  0  0  0  0  0  0  0  0  0
    6.4250    0.3875    0.0000 F   0  0  0  0  0  0  0  0  0  0  0  0
    5.2792    1.3458    0.0000 F   0  0  0  0  0  0  0  0  0  0  0  0
    5.4125    0.3458    0.0000 F   0  0  0  0  0  0  0  0  0  0  0  0
    1.5750    2.3583    0.0000 C   0  0  0  0  0  0  0  0  0  0  0  0
    2.3375    1.3083    0.0000 C   0  0  0  0  0  0  0  0  0  0  0  0
    3.8125    1.5458    0.0000 C   0  0  0  0  0  0  0  0  0  0  0  0
    0.9667    1.9125    0.0000 C   0  0  0  0  0  0  0  0  0  0  0  0
    1.7292    0.8625    0.0000 C   0  0  0  0  0  0  0  0  0  0  0  0
    1.0417    1.1708    0.0000 C   0  0  0  0  0  0  0  0  0  0  0  0
    7.0167    1.5708    0.0000 C   0  0  0  0  0  0  0  0  0  0  0  0
    6.2667    2.8708    0.0000 C   0  0  0  0  0  0  0  0  0  0  0  0
    0.4417    0.7333    0.0000 C   0  0  0  0  0  0  0  0  0  0  0  0
    7.3917    2.2208    0.0000 C   0  0  0  0  0  0  0  0  0  0  0  0
    7.0167    2.8708    0.0000 C   0  0  0  0  0  0  0  0  0  0  0  0
    0.5167   -0.0167    0.0000 C   0  0  0  0  0  0  0  0  0  0  0  0
  2  4  2  0  0  0  0
  2  3  1  0  0  0  0
  3  5  1  0  0  0  0
  4  1  1  0  0  0  0
  5  1  2  0  0  0  0
  6  1  1  0  0  0  0
  7  8  1  0  0  0  0
  8 10  1  0  0  0  0
  9  6  1  0  0  0  0
 10  9  1  0  0  0  0
 11  3  1  0  0  0  0
 12  6  2  0  0  0  0
 13  7  1  0  0  0  0
 14  7  1  0  0  0  0
 15  7  1  0  0  0  0
 16 11  2  0  0  0  0
 17 11  1  0  0  0  0
 18  5  1  0  0  0  0
 19 16  1  0  0  0  0
 19 21  2  0  0  0  0
 20 17  2  0  0  0  0
 21 20  1  0  0  0  0
 22  8  2  0  0  0  0
 23 10  2  0  0  0  0
 24 21  1  0  0  0  0
 25 26  2  0  0  0  0
 25 22  1  0  0  0  0
 26 23  1  0  0  0  0
 27 24  1  0  0  0  0
M  END
>  <ID>
9077069

>  <Supplier>
ChemBridge

>  <clogP>
3.362000000000000e+000

>  <RB>
3

>  <tPSA>
5.981000000000002e+001

>  <Hacc>
3

>  <Hdon>
1

>  <LogSw>
-4.801000000000000e+000

>  <Group>
2

>  <Core>
121

$$$$
6238383
 OpenBabel03312015312D

 32 36  0  0  0  0  0  0  0  0999 V2000
    2.7375   -1.2167    0.0000 C   0  0  0  0  0  0  0  0  0  0  0  0
    2.3750   -0.4917    0.0000 C   0  0  0  0  0  0  0  0  0  0  0  0
    2.3792   -1.9667    0.0000 C   0  0  3  0  0  0  0  0  0  0  0  0
    1.5875   -2.1667    0.0000 N   0  0  0  0  0  0  0  0  0  0  0  0
    3.5500   -1.2667    0.0000 C   0  0  0  0  0  0  0  0  0  0  0  0
    1.5750   -0.3042    0.0000 N   0  0  0  0  0  0  0  0  0  0  0  0
    0.9375   -1.6542    0.0000 C   0  0  0  0  0  0  0  0  0  0  0  0
    2.8250    0.1958    0.0000 C   0  0  0  0  0  0  0  0  0  0  0  0
    0.9250   -0.8167    0.0000 C   0  0  0  0  0  0  0  0  0  0  0  0
    3.6500    0.1333    0.0000 C   0  0  3  0  0  0  0  0  0  0  0  0
    4.0125   -0.5917    0.0000 C   0  0  0  0  0  0  0  0  0  0  0  0
    4.4542   -4.5417    0.0000 C   0  0  0  0  0  0  0  0  0  0  0  0
    2.9000   -2.6167    0.0000 C   0  0  0  0  0  0  0  0  0  0  0  0
    3.9375   -3.9042    0.0000 C   0  0  0  0  0  0  0  0  0  0  0  0
    3.9250   -2.0167    0.0000 O   0  0  0  0  0  0  0  0  0  0  0  0
    4.1542   -5.3125    0.0000 O   0  0  0  0  0  0  0  0  0  0  0  0
    4.1125    0.8208    0.0000 C   0  0  0  0  0  0  0  0  0  0  0  0
    2.6000   -3.3792    0.0000 C   0  0  0  0  0  0  0  0  0  0  0  0
    3.7125   -2.4792    0.0000 C   0  0  0  0  0  0  0  0  0  0  0  0
    4.2375   -3.1167    0.0000 C   0  0  0  0  0  0  0  0  0  0  0  0
    3.1250   -4.0292    0.0000 C   0  0  0  0  0  0  0  0  0  0  0  0
    5.2667   -4.4167    0.0000 O   0  0  0  0  0  0  0  0  0  0  0  0
    0.2125   -2.0667    0.0000 C   0  0  0  0  0  0  0  0  0  0  0  0
    0.2000   -0.4042    0.0000 C   0  0  0  0  0  0  0  0  0  0  0  0
    3.7500    1.5583    0.0000 C   0  0  0  0  0  0  0  0  0  0  0  0
    4.9375    0.7583    0.0000 C   0  0  0  0  0  0  0  0  0  0  0  0
    5.7875   -5.0542    0.0000 C   0  0  0  0  0  0  0  0  0  0  0  0
   -0.5000   -0.8167    0.0000 C   0  0  0  0  0  0  0  0  0  0  0  0
   -0.5000   -1.6542    0.0000 C   0  0  0  0  0  0  0  0  0  0  0  0
    5.4000    1.4458    0.0000 C   0  0  0  0  0  0  0  0  0  0  0  0
    4.2125    2.2458    0.0000 C   0  0  0  0  0  0  0  0  0  0  0  0
    5.0375    2.1833    0.0000 C   0  0  0  0  0  0  0  0  0  0  0  0
  2  1  2  0  0  0  0
  3  1  1  0  0  0  0
  4  3  1  0  0  0  0
  5  1  1  0  0  0  0
  6  2  1  0  0  0  0
  7  4  1  0  0  0  0
  7  9  1  0  0  0  0
  8  2  1  0  0  0  0
  8 10  1  0  0  0  0
  9  6  1  0  0  0  0
 10 11  1  0  0  0  0
 11  5  1  0  0  0  0
 12 14  1  0  0  0  0
 13  3  1  0  0  0  0
 14 20  1  0  0  0  0
 15  5  2  0  0  0  0
 16 12  2  0  0  0  0
 17 10  1  0  0  0  0
 18 13  2  0  0  0  0
 19 13  1  0  0  0  0
 20 19  2  0  0  0  0
 21 18  1  0  0  0  0
 21 14  2  0  0  0  0
 22 12  1  0  0  0  0
 23  7  2  0  0  0  0
 24  9  2  0  0  0  0
 25 17  1  0  0  0  0
 26 17  2  0  0  0  0
 27 22  1  0  0  0  0
 28 24  1  0  0  0  0
 29 23  1  0  0  0  0
 29 28  2  0  0  0  0
 30 26  1  0  0  0  0
 31 25  2  0  0  0  0
 31 32  1  0  0  0  0
 32 30  2  0  0  0  0
M  END
>  <ID>
6238383

>  <Supplier>
ChemBridge

>  <clogP>
4.080000000000000e+000

>  <RB>
3

>  <tPSA>
6.743000000000001e+001

>  <Hacc>
3

>  <Hdon>
2

>  <LogSw>
-5.779000000000003e+000

>  <Group>
3

>  <Core>
102

$$$$
6238382
 OpenBabel03312015312D

 25 27  0  0  0  0  0  0  0  0999 V2000
    1.5542   -0.5167    0.0000 N   0  0  0  0  0  0  0  0  0  0  0  0
    2.2875   -0.5167    0.0000 C   0  0  0  0  0  0  0  0  0  0  0  0
    0.0792   -0.5167    0.0000 N   0  0  0  0  0  0  0  0  0  0  0  0
    2.6542   -1.1500    0.0000 N   0  0  0  0  0  0  0  0  0  0  0  0
    1.2000    0.1208    0.0000 C   0  0  0  0  0  0  0  0  0  0  0  0
    1.2000   -1.1542    0.0000 C   0  0  0  0  0  0  0  0  0  0  0  0
   -3.2208    0.1208    0.0000 C   0  0  0  0  0  0  0  0  0  0  0  0
   -0.6625   -0.5167    0.0000 C   0  0  0  0  0  0  0  0  0  0  0  0
    0.4542    0.1208    0.0000 C   0  0  0  0  0  0  0  0  0  0  0  0
    0.4542   -1.1542    0.0000 C   0  0  0  0  0  0  0  0  0  0  0  0
   -2.1208    0.7625    0.0000 O   0  0  0  0  0  0  0  0  0  0  0  0
   -1.0208    0.1208    0.0000 C   0  0  3  0  0  0  0  0  0  0  0  0
   -2.8625    0.7625    0.0000 C   0  0  0  0  0  0  0  0  0  0  0  0
   -3.9625    0.1208    0.0000 C   0  0  0  0  0  0  0  0  0  0  0  0
   -1.7625    0.1208    0.0000 C   0  0  0  0  0  0  0  0  0  0  0  0
   -0.6625    0.7625    0.0000 O   0  0  0  0  0  0  0  0  0  0  0  0
   -4.3208   -0.5167    0.0000 O   0  0  0  0  0  0  0  0  0  0  0  0
    2.6500    0.1125    0.0000 C   0  0  0  0  0  0  0  0  0  0  0  0
   -3.9625    1.4208    0.0000 C   0  0  0  0  0  0  0  0  0  0  0  0
    3.4000   -1.1375    0.0000 C   0  0  0  0  0  0  0  0  0  0  0  0
   -3.2208    1.4208    0.0000 C   0  0  0  0  0  0  0  0  0  0  0  0
   -4.3208    0.7625    0.0000 C   0  0  0  0  0  0  0  0  0  0  0  0
   -3.9458   -1.1542    0.0000 C   0  0  0  0  0  0  0  0  0  0  0  0
    3.3875    0.1208    0.0000 C   0  0  0  0  0  0  0  0  0  0  0  0
    3.7667   -0.5000    0.0000 C   0  0  0  0  0  0  0  0  0  0  0  0
  2  1  1  0  0  0  0
  3 10  1  0  0  0  0
  3  9  1  0  0  0  0
  4  2  2  0  0  0  0
  5  1  1  0  0  0  0
  6  1  1  0  0  0  0
  7 13  2  0  0  0  0
  8  3  1  0  0  0  0
  9  5  1  0  0  0  0
 10  6  1  0  0  0  0
 11 15  1  0  0  0  0
 12  8  1  0  0  0  0
 13 11  1  0  0  0  0
 14  7  1  0  0  0  0
 15 12  1  0  0  0  0
 16 12  1  0  0  0  0
 17 14  1  0  0  0  0
 18  2  1  0  0  0  0
 19 21  2  0  0  0  0
 20  4  1  0  0  0  0
 21 13  1  0  0  0  0
 22 19  1  0  0  0  0
 22 14  2  0  0  0  0
 23 17  1  0  0  0  0
 24 18  2  0  0  0  0
 25 24  1  0  0  0  0
 25 20  2  0  0  0  0
M  END
>  <ID>
6238382

>  <Supplier>
ChemBridge

>  <clogP>
4.000000000000000e-001

>  <RB>
6

>  <tPSA>
5.806000000000000e+001

>  <Hacc>
5

>  <Hdon>
1

>  <LogSw>
-1.038000000000000e+000

>  <Group>
3

>  <Core>
564

$$$$
7147149
 OpenBabel03312015312D

 32 34  0  0  0  0  0  0  0  0999 V2000
    5.5042   -4.9917    0.0000 S   0  0  0  0  0  0  0  0  0  0  0  0
    5.5042   -4.1667    0.0000 N   0  0  0  0  0  0  0  0  0  0  0  0
    6.2167   -3.7542    0.0000 C   0  0  0  0  0  0  0  0  0  0  0  0
    6.9375   -4.1667    0.0000 C   0  0  0  0  0  0  0  0  0  0  0  0
    7.6500   -3.7542    0.0000 N   0  0  0  0  0  0  0  0  0  0  0  0
    4.7917   -5.4042    0.0000 C   0  0  0  0  0  0  0  0  0  0  0  0
    9.7875   -2.5042    0.0000 C   0  0  0  0  0  0  0  0  0  0  0  0
    6.0875   -5.5792    0.0000 O   0  0  0  0  0  0  0  0  0  0  0  0
    6.3292   -4.9917    0.0000 O   0  0  0  0  0  0  0  0  0  0  0  0
    4.7917   -3.7542    0.0000 C   0  0  0  0  0  0  0  0  0  0  0  0
    9.0750   -2.9167    0.0000 C   0  0  0  0  0  0  0  0  0  0  0  0
    8.3667   -4.1625    0.0000 C   0  0  0  0  0  0  0  0  0  0  0  0
    7.6417   -2.9292    0.0000 C   0  0  0  0  0  0  0  0  0  0  0  0
    6.9292   -4.9917    0.0000 O   0  0  0  0  0  0  0  0  0  0  0  0
   10.5042   -2.9125    0.0000 O   0  0  0  0  0  0  0  0  0  0  0  0
    8.3542   -2.5125    0.0000 C   0  0  0  0  0  0  0  0  0  0  0  0
    9.0792   -3.7500    0.0000 C   0  0  0  0  0  0  0  0  0  0  0  0
    4.0792   -4.9917    0.0000 C   0  0  0  0  0  0  0  0  0  0  0  0
    4.7917   -6.2292    0.0000 C   0  0  0  0  0  0  0  0  0  0  0  0
    4.0792   -4.1667    0.0000 C   0  0  0  0  0  0  0  0  0  0  0  0
    4.7917   -2.9292    0.0000 C   0  0  0  0  0  0  0  0  0  0  0  0
    9.7792   -1.6750    0.0000 N   0  0  0  0  0  0  0  0  0  0  0  0
    3.3625   -6.2250    0.0000 C   0  0  0  0  0  0  0  0  0  0  0  0
    3.3667   -2.9292    0.0000 C   0  0  0  0  0  0  0  0  0  0  0  0
    3.3667   -5.4000    0.0000 C   0  0  0  0  0  0  0  0  0  0  0  0
    4.0750   -6.6417    0.0000 C   0  0  0  0  0  0  0  0  0  0  0  0
    3.3667   -3.7542    0.0000 C   0  0  0  0  0  0  0  0  0  0  0  0
    4.0792   -2.5167    0.0000 C   0  0  0  0  0  0  0  0  0  0  0  0
    2.6417   -6.6292    0.0000 Cl  0  0  0  0  0  0  0  0  0  0  0  0
    2.6542   -2.5167    0.0000 O   0  0  0  0  0  0  0  0  0  0  0  0
    2.6500   -1.6917    0.0000 C   0  0  0  0  0  0  0  0  0  0  0  0
    3.3625   -1.2792    0.0000 C   0  0  0  0  0  0  0  0  0  0  0  0
  2  1  1  0  0  0  0
  3  2  1  0  0  0  0
  4  3  1  0  0  0  0
  5  4  1  0  0  0  0
  6  1  1  0  0  0  0
  7 11  1  0  0  0  0
  8  1  2  0  0  0  0
  9  1  2  0  0  0  0
 10  2  1  0  0  0  0
 11 16  1  0  0  0  0
 12  5  1  0  0  0  0
 13  5  1  0  0  0  0
 14  4  2  0  0  0  0
 15  7  2  0  0  0  0
 16 13  1  0  0  0  0
 17 12  1  0  0  0  0
 17 11  1  0  0  0  0
 18  6  2  0  0  0  0
 19  6  1  0  0  0  0
 20 10  2  0  0  0  0
 21 10  1  0  0  0  0
 22  7  1  0  0  0  0
 23 26  1  0  0  0  0
 24 28  1  0  0  0  0
 25 18  1  0  0  0  0
 25 23  2  0  0  0  0
 26 19  2  0  0  0  0
 27 20  1  0  0  0  0
 27 24  2  0  0  0  0
 28 21  2  0  0  0  0
 29 23  1  0  0  0  0
 30 24  1  0  0  0  0
 31 30  1  0  0  0  0
 32 31  1  0  0  0  0
M  END
>  <ID>
7147149

>  <Supplier>
ChemBridge

>  <clogP>
2.060000000000000e+000

>  <RB>
5

>  <tPSA>
1.100100000000000e+002

>  <Hacc>
5

>  <Hdon>
1

>  <LogSw>
-4.458000000000000e+000

>  <Group>
2

>  <Core>
084

$$$$
6898780
 OpenBabel03312015312D

 27 30  0  0  0  0  0  0  0  0999 V2000
    2.5667   -2.9792    0.0000 C   0  0  0  0  0  0  0  0  0  0  0  0
    3.3917   -3.0625    0.0000 C   0  0  0  0  0  0  0  0  0  0  0  0
    2.0167   -3.5917    0.0000 O   0  0  0  0  0  0  0  0  0  0  0  0
    1.2667   -3.2542    0.0000 C   0  0  0  0  0  0  0  0  0  0  0  0
    3.8750   -2.3917    0.0000 N   0  0  0  0  0  0  0  0  0  0  0  0
    4.8417   -1.0542    0.0000 N   0  0  0  0  0  0  0  0  0  0  0  0
    2.1542   -2.2625    0.0000 C   0  0  0  0  0  0  0  0  0  0  0  0
    1.3500   -2.4375    0.0000 C   0  0  0  0  0  0  0  0  0  0  0  0
    5.3292   -0.3917    0.0000 C   0  0  0  0  0  0  0  0  0  0  0  0
    6.1500   -0.4792    0.0000 C   0  0  0  0  0  0  0  0  0  0  0  0
    3.7292   -3.8125    0.0000 S   0  0  0  0  0  0  0  0  0  0  0  0
    0.5542   -3.6750    0.0000 C   0  0  0  0  0  0  0  0  0  0  0  0
    4.7000   -2.4792    0.0000 C   0  0  0  0  0  0  0  0  0  0  0  0
    3.5375   -1.6417    0.0000 C   0  0  0  0  0  0  0  0  0  0  0  0
    4.0250   -0.9750    0.0000 C   0  0  0  0  0  0  0  0  0  0  0  0
    5.1792   -1.8125    0.0000 C   0  0  0  0  0  0  0  0  0  0  0  0
    0.5542   -4.5042    0.0000 C   0  0  0  0  0  0  0  0  0  0  0  0
   -0.1583   -3.2625    0.0000 C   0  0  0  0  0  0  0  0  0  0  0  0
    6.6292    0.1833    0.0000 C   0  0  0  0  0  0  0  0  0  0  0  0
   -0.8708   -4.5042    0.0000 C   0  0  0  0  0  0  0  0  0  0  0  0
   -0.8708   -3.6750    0.0000 C   0  0  0  0  0  0  0  0  0  0  0  0
   -0.1583   -4.9167    0.0000 C   0  0  0  0  0  0  0  0  0  0  0  0
    7.4542    0.1000    0.0000 Cl  0  0  0  0  0  0  0  0  0  0  0  0
   -1.5875   -4.9125    0.0000 Br  0  0  0  0  0  0  0  0  0  0  0  0
    4.9917    0.3583    0.0000 C   0  0  0  0  0  0  0  0  0  0  0  0
    5.4750    1.0250    0.0000 C   0  0  0  0  0  0  0  0  0  0  0  0
    6.3000    0.9375    0.0000 C   0  0  0  0  0  0  0  0  0  0  0  0
  2  1  1  0  0  0  0
  3  1  1  0  0  0  0
  4  3  1  0  0  0  0
  5  2  1  0  0  0  0
  6 15  1  0  0  0  0
  7  1  2  0  0  0  0
  8  7  1  0  0  0  0
  8  4  2  0  0  0  0
  9  6  1  0  0  0  0
 10  9  2  0  0  0  0
 11  2  2  0  0  0  0
 12  4  1  0  0  0  0
 13  5  1  0  0  0  0
 14  5  1  0  0  0  0
 15 14  1  0  0  0  0
 16 13  1  0  0  0  0
 16  6  1  0  0  0  0
 17 12  1  0  0  0  0
 18 12  2  0  0  0  0
 19 10  1  0  0  0  0
 19 27  2  0  0  0  0
 20 21  2  0  0  0  0
 20 22  1  0  0  0  0
 21 18  1  0  0  0  0
 22 17  2  0  0  0  0
 23 19  1  0  0  0  0
 24 20  1  0  0  0  0
 25  9  1  0  0  0  0
 26 25  2  0  0  0  0
 27 26  1  0  0  0  0
M  END
>  <ID>
6898780

>  <Supplier>
ChemBridge

>  <clogP>
5.920000000000000e+000

>  <RB>
3

>  <tPSA>
1.962000000000000e+001

>  <Hacc>
1

>  <Hdon>
0

>  <LogSw>
-6.613999999999998e+000

>  <Group>
1

>  <Core>
158

$$$$
9043089
 OpenBabel03312015312D

 19 20  0  0  0  0  0  0  0  0999 V2000
    2.9667    1.5000    0.0000 C   0  0  0  0  0  0  0  0  0  0  0  0
    1.6667    1.5000    0.0000 C   0  0  0  0  0  0  0  0  0  0  0  0
    2.3167    1.1250    0.0000 N   0  0  0  0  0  0  0  0  0  0  0  0
    3.6167    1.1250    0.0000 N   0  0  0  0  0  0  0  0  0  0  0  0
    2.9667    2.2500    0.0000 O   0  0  0  0  0  0  0  0  0  0  0  0
    4.2667    1.5000    0.0000 C   0  0  0  0  0  0  0  0  0  0  0  0
    1.6667    2.2500    0.0000 C   0  0  0  0  0  0  0  0  0  0  0  0
    1.0167    1.1250    0.0000 C   0  0  0  0  0  0  0  0  0  0  0  0
    4.9167    1.1250    0.0000 C   0  0  0  0  0  0  0  0  0  0  0  0
    5.5667    1.5000    0.0000 C   0  0  0  0  0  0  0  0  0  0  0  0
    6.2167    1.1250    0.0000 F   0  0  0  0  0  0  0  0  0  0  0  0
    0.3750    2.2500    0.0000 C   0  0  0  0  0  0  0  0  0  0  0  0
    4.9167    2.6250    0.0000 C   0  0  0  0  0  0  0  0  0  0  0  0
    1.0167    2.6250    0.0000 C   0  0  0  0  0  0  0  0  0  0  0  0
    0.3750    1.5000    0.0000 C   0  0  0  0  0  0  0  0  0  0  0  0
    4.2667    2.2500    0.0000 C   0  0  0  0  0  0  0  0  0  0  0  0
    1.0167    0.3750    0.0000 C   0  0  0  0  0  0  0  0  0  0  0  0
    2.3167    2.6250    0.0000 C   0  0  0  0  0  0  0  0  0  0  0  0
    5.5667    2.2500    0.0000 C   0  0  0  0  0  0  0  0  0  0  0  0
  2  3  1  0  0  0  0
  3  1  1  0  0  0  0
  4  1  1  0  0  0  0
  5  1  2  0  0  0  0
  6  4  1  0  0  0  0
  7  2  1  0  0  0  0
  8  2  2  0  0  0  0
  9  6  2  0  0  0  0
 10  9  1  0  0  0  0
 10 19  2  0  0  0  0
 11 10  1  0  0  0  0
 12 15  2  0  0  0  0
 13 16  2  0  0  0  0
 14  7  2  0  0  0  0
 14 12  1  0  0  0  0
 15  8  1  0  0  0  0
 16  6  1  0  0  0  0
 17  8  1  0  0  0  0
 18  7  1  0  0  0  0
 19 13  1  0  0  0  0
M  END
>  <ID>
9043089

>  <Supplier>
ChemBridge

>  <clogP>
3.333000000000000e+000

>  <RB>
2

>  <tPSA>
4.113000000000000e+001

>  <Hacc>
1

>  <Hdon>
2

>  <LogSw>
-4.725000000000000e+000

>  <Group>
1

>  <Core>
514

$$$$
5316186
 OpenBabel03312015312D

 31 34  0  0  0  0  0  0  0  0999 V2000
   -1.3125   -0.0792    0.0000 N   0  0  0  0  0  0  0  0  0  0  0  0
   -2.2500    0.4625    0.0000 C   0  0  0  0  0  0  0  0  0  0  0  0
   -1.3125   -1.1542    0.0000 C   0  0  0  0  0  0  0  0  0  0  0  0
   -2.2500   -1.7000    0.0000 N   0  0  0  0  0  0  0  0  0  0  0  0
   -3.1958   -0.0792    0.0000 C   0  0  0  0  0  0  0  0  0  0  0  0
    2.4417    2.0833    0.0000 N   0  3  0  0  0  0  0  0  0  0  0  0
    4.3500   -3.3000    0.0000 N   0  3  0  0  0  0  0  0  0  0  0  0
   -3.1958   -1.1542    0.0000 C   0  0  0  0  0  0  0  0  0  0  0  0
   -0.3708   -1.7167    0.0000 C   0  0  0  0  0  0  0  0  0  0  0  0
   -0.3958    0.4625    0.0000 C   0  0  0  0  0  0  0  0  0  0  0  0
    1.4875    1.5458    0.0000 C   0  0  0  0  0  0  0  0  0  0  0  0
    3.4042   -2.7792    0.0000 C   0  0  0  0  0  0  0  0  0  0  0  0
   -2.2500    1.5458    0.0000 O   0  0  0  0  0  0  0  0  0  0  0  0
    4.4667   -4.3792    0.0000 O   0  5  0  0  0  0  0  0  0  0  0  0
    3.3667    1.5458    0.0000 O   0  5  0  0  0  0  0  0  0  0  0  0
    0.5875   -1.1542    0.0000 C   0  0  0  0  0  0  0  0  0  0  0  0
    2.4667    3.1708    0.0000 O   0  0  0  0  0  0  0  0  0  0  0  0
    5.3042   -2.8042    0.0000 O   0  0  0  0  0  0  0  0  0  0  0  0
    0.5667   -0.0792    0.0000 C   0  0  0  0  0  0  0  0  0  0  0  0
   -0.3958    1.5458    0.0000 C   0  0  0  0  0  0  0  0  0  0  0  0
    1.4875    0.4625    0.0000 C   0  0  0  0  0  0  0  0  0  0  0  0
    0.5500    2.0833    0.0000 C   0  0  0  0  0  0  0  0  0  0  0  0
    2.4417   -3.3167    0.0000 C   0  0  0  0  0  0  0  0  0  0  0  0
    3.3875   -1.7000    0.0000 C   0  0  0  0  0  0  0  0  0  0  0  0
    1.5292   -1.7000    0.0000 C   0  0  0  0  0  0  0  0  0  0  0  0
   -4.1125    0.4625    0.0000 C   0  0  0  0  0  0  0  0  0  0  0  0
    1.5292   -2.7792    0.0000 C   0  0  0  0  0  0  0  0  0  0  0  0
    2.4417   -1.1542    0.0000 C   0  0  0  0  0  0  0  0  0  0  0  0
   -4.1125   -1.7000    0.0000 C   0  0  0  0  0  0  0  0  0  0  0  0
   -5.0500   -0.0792    0.0000 C   0  0  0  0  0  0  0  0  0  0  0  0
   -5.0500   -1.1542    0.0000 C   0  0  0  0  0  0  0  0  0  0  0  0
  2  1  1  0  0  0  0
  3  1  1  0  0  0  0
  4  3  2  0  0  0  0
  5  2  1  0  0  0  0
  5  8  2  0  0  0  0
  6 11  1  0  0  0  0
  7 12  1  0  0  0  0
  8  4  1  0  0  0  0
  9  3  1  0  0  0  0
 10  1  1  0  0  0  0
 11 22  2  0  0  0  0
 11 21  1  0  0  0  0
 12 24  2  0  0  0  0
 12 23  1  0  0  0  0
 13  2  2  0  0  0  0
 14  7  1  0  0  0  0
 15  6  1  0  0  0  0
 16  9  2  0  0  0  0
 17  6  2  0  0  0  0
 18  7  2  0  0  0  0
 19 10  1  0  0  0  0
 20 10  2  0  0  0  0
 21 19  2  0  0  0  0
 22 20  1  0  0  0  0
 23 27  2  0  0  0  0
 24 28  1  0  0  0  0
 25 16  1  0  0  0  0
 26  5  1  0  0  0  0
 27 25  1  0  0  0  0
 28 25  2  0  0  0  0
 29  8  1  0  0  0  0
 30 26  2  0  0  0  0
 31 29  2  0  0  0  0
 31 30  1  0  0  0  0
M  CHG  4   6   1   7   1  14  -1  15  -1
M  END
>  <ID>
5316186

>  <Supplier>
ChemBridge

>  <clogP>
3.760000000000000e+000

>  <RB>
3

>  <tPSA>
1.211700000000000e+002

>  <Hacc>
6

>  <Hdon>
0

>  <LogSw>
-5.821999999999998e+000

>  <Group>
1

>  <Core>
060

$$$$
5316181
 OpenBabel03312015312D

 20 21  0  0  0  0  0  0  0  0999 V2000
   -0.5500   -0.2375    0.0000 C   0  0  0  0  0  0  0  0  0  0  0  0
    0.2042   -0.6875    0.0000 C   0  0  0  0  0  0  0  0  0  0  0  0
    0.2042   -1.5792    0.0000 C   0  0  0  0  0  0  0  0  0  0  0  0
    1.0000   -2.0375    0.0000 C   0  0  0  0  0  0  0  0  0  0  0  0
   -2.1000   -0.2167    0.0000 N   0  0  0  0  0  0  0  0  0  0  0  0
    1.7500   -1.6042    0.0000 C   0  0  0  0  0  0  0  0  0  0  0  0
   -1.3500   -0.6667    0.0000 N   0  0  0  0  0  0  0  0  0  0  0  0
   -0.5500    0.6625    0.0000 O   0  0  0  0  0  0  0  0  0  0  0  0
    0.9792   -0.2500    0.0000 C   0  0  0  0  0  0  0  0  0  0  0  0
   -3.6708   -0.1792    0.0000 C   0  0  0  0  0  0  0  0  0  0  0  0
    1.7500   -0.7167    0.0000 C   0  0  0  0  0  0  0  0  0  0  0  0
   -2.8833   -0.6375    0.0000 C   0  0  0  0  0  0  0  0  0  0  0  0
   -3.6625    0.7000    0.0000 C   0  0  0  0  0  0  0  0  0  0  0  0
    1.0292   -2.9375    0.0000 O   0  0  0  0  0  0  0  0  0  0  0  0
    2.5167   -2.1000    0.0000 O   0  0  0  0  0  0  0  0  0  0  0  0
   -2.8708    1.1500    0.0000 C   0  0  0  0  0  0  0  0  0  0  0  0
   -4.4583   -0.6375    0.0000 C   0  0  0  0  0  0  0  0  0  0  0  0
   -4.4333    1.1708    0.0000 C   0  0  0  0  0  0  0  0  0  0  0  0
   -5.2208   -0.1792    0.0000 C   0  0  0  0  0  0  0  0  0  0  0  0
   -5.2208    0.7333    0.0000 C   0  0  0  0  0  0  0  0  0  0  0  0
  2  1  1  0  0  0  0
  3  2  2  0  0  0  0
  4  3  1  0  0  0  0
  5  7  1  0  0  0  0
  6 11  1  0  0  0  0
  6  4  2  0  0  0  0
  7  1  1  0  0  0  0
  8  1  2  0  0  0  0
  9  2  1  0  0  0  0
 10 12  1  0  0  0  0
 11  9  2  0  0  0  0
 12  5  2  0  0  0  0
 13 10  1  0  0  0  0
 14  4  1  0  0  0  0
 15  6  1  0  0  0  0
 16 13  1  0  0  0  0
 17 10  2  0  0  0  0
 18 13  2  0  0  0  0
 18 20  1  0  0  0  0
 19 17  1  0  0  0  0
 20 19  2  0  0  0  0
M  END
>  <ID>
5316181

>  <Supplier>
ChemBridge

>  <clogP>
2.260000000000000e+000

>  <RB>
3

>  <tPSA>
8.192000000000000e+001

>  <Hacc>
4

>  <Hdon>
3

>  <LogSw>
-2.522000000000000e+000

>  <Group>
1

>  <Core>
216

$$$$
5231455
 OpenBabel03312015312D

 36 39  0  0  0  0  0  0  0  0999 V2000
   -0.3625    0.2458    0.0000 C   0  0  0  0  0  0  0  0  0  0  0  0
    0.9000    0.2458    0.0000 C   0  0  0  0  0  0  0  0  0  0  0  0
    0.2542    0.6000    0.0000 C   0  0  0  0  0  0  0  0  0  0  0  0
   -1.0000    0.6208    0.0000 C   0  0  0  0  0  0  0  0  0  0  0  0
    0.9000   -0.4792    0.0000 C   0  0  0  0  0  0  0  0  0  0  0  0
    0.2542   -0.8375    0.0000 N   0  0  0  0  0  0  0  0  0  0  0  0
   -0.3625   -0.4792    0.0000 C   0  0  0  0  0  0  0  0  0  0  0  0
    1.5375    0.6000    0.0000 C   0  0  0  0  0  0  0  0  0  0  0  0
   -1.6208    0.2625    0.0000 N   0  0  0  0  0  0  0  0  0  0  0  0
    2.1792    0.9625    0.0000 N   0  0  0  0  0  0  0  0  0  0  0  0
    1.5375   -0.8375    0.0000 S   0  0  0  0  0  0  0  0  0  0  0  0
    0.2542    1.3208    0.0000 C   0  0  0  0  0  0  0  0  0  0  0  0
    2.8000   -0.8375    0.0000 C   0  0  0  0  0  0  0  0  0  0  0  0
   -1.0000    1.3458    0.0000 O   0  0  0  0  0  0  0  0  0  0  0  0
    2.8000   -1.5542    0.0000 C   0  0  0  0  0  0  0  0  0  0  0  0
    2.1542   -0.4792    0.0000 C   0  0  0  0  0  0  0  0  0  0  0  0
    3.4167   -0.4792    0.0000 O   0  0  0  0  0  0  0  0  0  0  0  0
   -0.3833    1.6833    0.0000 C   0  0  0  0  0  0  0  0  0  0  0  0
    0.8792    1.6833    0.0000 C   0  0  0  0  0  0  0  0  0  0  0  0
    2.1792   -1.9167    0.0000 C   0  0  0  0  0  0  0  0  0  0  0  0
    3.4167   -1.9167    0.0000 C   0  0  0  0  0  0  0  0  0  0  0  0
   -2.2458    0.6208    0.0000 C   0  0  0  0  0  0  0  0  0  0  0  0
    0.2542    2.7708    0.0000 C   0  0  0  0  0  0  0  0  0  0  0  0
    2.8000   -3.0000    0.0000 C   0  0  0  0  0  0  0  0  0  0  0  0
   -0.3625    2.4000    0.0000 C   0  0  0  0  0  0  0  0  0  0  0  0
    0.8792    2.4000    0.0000 C   0  0  0  0  0  0  0  0  0  0  0  0
    3.4167   -2.6375    0.0000 C   0  0  0  0  0  0  0  0  0  0  0  0
    2.1792   -2.6375    0.0000 C   0  0  0  0  0  0  0  0  0  0  0  0
    2.8000   -3.7167    0.0000 Br  0  0  0  0  0  0  0  0  0  0  0  0
    0.2542    3.4833    0.0000 Br  0  0  0  0  0  0  0  0  0  0  0  0
   -1.0000   -0.8542    0.0000 C   0  0  0  0  0  0  0  0  0  0  0  0
   -2.8625    0.2625    0.0000 C   0  0  0  0  0  0  0  0  0  0  0  0
   -2.2458    1.3458    0.0000 C   0  0  0  0  0  0  0  0  0  0  0  0
   -3.5000    0.6208    0.0000 C   0  0  0  0  0  0  0  0  0  0  0  0
   -2.8625    1.7000    0.0000 C   0  0  0  0  0  0  0  0  0  0  0  0
   -3.4833    1.3458    0.0000 C   0  0  0  0  0  0  0  0  0  0  0  0
  2  3  2  0  0  0  0
  3  1  1  0  0  0  0
  4  1  1  0  0  0  0
  5  6  2  0  0  0  0
  5  2  1  0  0  0  0
  6  7  1  0  0  0  0
  7  1  2  0  0  0  0
  8  2  1  0  0  0  0
  9  4  1  0  0  0  0
 10  8  3  0  0  0  0
 11  5  1  0  0  0  0
 12  3  1  0  0  0  0
 13 16  1  0  0  0  0
 14  4  2  0  0  0  0
 15 13  1  0  0  0  0
 16 11  1  0  0  0  0
 17 13  2  0  0  0  0
 18 12  1  0  0  0  0
 19 12  2  0  0  0  0
 20 15  2  0  0  0  0
 21 15  1  0  0  0  0
 22  9  1  0  0  0  0
 23 26  2  0  0  0  0
 24 27  1  0  0  0  0
 24 28  2  0  0  0  0
 25 18  2  0  0  0  0
 25 23  1  0  0  0  0
 26 19  1  0  0  0  0
 27 21  2  0  0  0  0
 28 20  1  0  0  0  0
 29 24  1  0  0  0  0
 30 23  1  0  0  0  0
 31  7  1  0  0  0  0
 32 22  1  0  0  0  0
 33 22  2  0  0  0  0
 34 32  2  0  0  0  0
 35 33  1  0  0  0  0
 36 35  2  0  0  0  0
 36 34  1  0  0  0  0
M  END
>  <ID>
5231455

>  <Supplier>
ChemBridge

>  <clogP>
6.609999999999999e+000

>  <RB>
7

>  <tPSA>
8.284999999999999e+001

>  <Hacc>
4

>  <Hdon>
1

>  <LogSw>
-9.637000000000001e+000

>  <Group>
3

>  <Core>
042

$$$$
7359896
 OpenBabel03312015312D

 25 27  0  0  0  0  0  0  0  0999 V2000
    0.0000   -0.9542    0.0000 C   0  0  0  0  0  0  0  0  0  0  0  0
    0.7417   -1.3167    0.0000 N   0  0  0  0  0  0  0  0  0  0  0  0
    0.8042   -2.1375    0.0000 C   0  0  0  0  0  0  0  0  0  0  0  0
   -0.0583   -0.1375    0.0000 C   0  0  0  0  0  0  0  0  0  0  0  0
    0.1667   -2.6792    0.0000 N   0  0  0  0  0  0  0  0  0  0  0  0
    0.6250    0.3333    0.0000 C   0  0  0  0  0  0  0  0  0  0  0  0
    1.3667   -0.0292    0.0000 N   0  0  0  0  0  0  0  0  0  0  0  0
    1.5042   -2.5667    0.0000 S   0  0  0  0  0  0  0  0  0  0  0  0
    2.0500    0.4333    0.0000 C   0  0  0  0  0  0  0  0  0  0  0  0
   -0.6833   -1.4167    0.0000 O   0  0  0  0  0  0  0  0  0  0  0  0
    0.4792   -3.4292    0.0000 C   0  0  0  0  0  0  0  0  0  0  0  0
    1.3000   -3.3667    0.0000 C   0  0  0  0  0  0  0  0  0  0  0  0
    1.9917    1.2583    0.0000 O   0  0  0  0  0  0  0  0  0  0  0  0
    2.8542   -0.7500    0.0000 O   0  0  0  0  0  0  0  0  0  0  0  0
    2.7917    0.0708    0.0000 C   0  0  0  0  0  0  0  0  0  0  0  0
   -0.8000    0.2208    0.0000 C   0  0  0  0  0  0  0  0  0  0  0  0
    3.5917   -1.1125    0.0000 C   0  0  0  0  0  0  0  0  0  0  0  0
    0.5667    1.1583    0.0000 C   0  0  0  0  0  0  0  0  0  0  0  0
    3.6500   -1.9292    0.0000 C   0  0  0  0  0  0  0  0  0  0  0  0
    4.2667   -0.6500    0.0000 C   0  0  0  0  0  0  0  0  0  0  0  0
   -0.8625    1.0500    0.0000 C   0  0  0  0  0  0  0  0  0  0  0  0
   -0.1833    1.5125    0.0000 C   0  0  0  0  0  0  0  0  0  0  0  0
    5.0125   -1.0042    0.0000 C   0  0  0  0  0  0  0  0  0  0  0  0
    4.3917   -2.2917    0.0000 C   0  0  0  0  0  0  0  0  0  0  0  0
    5.0750   -1.8292    0.0000 C   0  0  0  0  0  0  0  0  0  0  0  0
  2  1  1  0  0  0  0
  3  2  1  0  0  0  0
  4  1  1  0  0  0  0
  5  3  2  0  0  0  0
  6  4  1  0  0  0  0
  7  6  1  0  0  0  0
  8  3  1  0  0  0  0
  9  7  1  0  0  0  0
 10  1  2  0  0  0  0
 11  5  1  0  0  0  0
 12  8  1  0  0  0  0
 12 11  2  0  0  0  0
 13  9  2  0  0  0  0
 14 15  1  0  0  0  0
 15  9  1  0  0  0  0
 16  4  2  0  0  0  0
 17 14  1  0  0  0  0
 18  6  2  0  0  0  0
 19 17  2  0  0  0  0
 20 17  1  0  0  0  0
 21 16  1  0  0  0  0
 22 21  2  0  0  0  0
 22 18  1  0  0  0  0
 23 20  2  0  0  0  0
 24 19  1  0  0  0  0
 25 23  1  0  0  0  0
 25 24  2  0  0  0  0
M  END
>  <ID>
7359896

>  <Supplier>
ChemBridge

>  <clogP>
3.016000000000000e+000

>  <RB>
6

>  <tPSA>
8.031999999999999e+001

>  <Hacc>
4

>  <Hdon>
2

>  <LogSw>
-4.351999999999999e+000

>  <Group>
3

>  <Core>
559

$$$$
7359897
 OpenBabel03312015312D

 19 20  0  0  0  0  0  0  0  0999 V2000
    1.5875   -1.6917    0.0000 C   0  0  0  0  0  0  0  0  0  0  0  0
    2.3000   -2.1042    0.0000 N   0  0  0  0  0  0  0  0  0  0  0  0
    0.8750   -2.0917    0.0000 N   0  0  0  0  0  0  0  0  0  0  0  0
    4.9542   -1.8875    0.0000 C   0  0  0  0  0  0  0  0  0  0  0  0
    1.5917   -0.9000    0.0000 S   0  0  0  0  0  0  0  0  0  0  0  0
    2.9250   -1.8667    0.0000 C   0  0  0  0  0  0  0  0  0  0  0  0
    2.7042   -1.3750    0.0000 C   0  0  0  0  0  0  0  0  0  0  0  0
    4.2500   -1.4792    0.0000 C   0  0  0  0  0  0  0  0  0  0  0  0
    4.9625   -2.7042    0.0000 O   0  0  0  0  0  0  0  0  0  0  0  0
    3.8417   -2.2000    0.0000 C   0  0  0  0  0  0  0  0  0  0  0  0
    3.5750   -1.7042    0.0000 C   0  0  0  0  0  0  0  0  0  0  0  0
    0.1500   -1.6917    0.0000 C   0  0  0  0  0  0  0  0  0  0  0  0
    5.6667   -1.4792    0.0000 N   0  0  0  0  0  0  0  0  0  0  0  0
   -1.3125   -0.8667    0.0000 C   0  0  0  0  0  0  0  0  0  0  0  0
   -2.0375   -0.4750    0.0000 Cl  0  0  0  0  0  0  0  0  0  0  0  0
    0.1167   -0.8667    0.0000 C   0  0  0  0  0  0  0  0  0  0  0  0
   -0.5708   -2.1125    0.0000 C   0  0  0  0  0  0  0  0  0  0  0  0
   -1.3000   -1.7125    0.0000 C   0  0  0  0  0  0  0  0  0  0  0  0
   -0.5958   -0.4417    0.0000 C   0  0  0  0  0  0  0  0  0  0  0  0
  2  1  1  0  0  0  0
  3  1  1  0  0  0  0
  4  8  1  0  0  0  0
  5  1  2  0  0  0  0
  6  2  1  0  0  0  0
  7  2  1  0  0  0  0
  8 11  1  0  0  0  0
  9  4  2  0  0  0  0
 10  6  1  0  0  0  0
 10  8  1  0  0  0  0
 11  7  1  0  0  0  0
 12  3  1  0  0  0  0
 13  4  1  0  0  0  0
 14 18  1  0  0  0  0
 15 14  1  0  0  0  0
 16 12  2  0  0  0  0
 17 12  1  0  0  0  0
 18 17  2  0  0  0  0
 19 16  1  0  0  0  0
 19 14  2  0  0  0  0
M  END
>  <ID>
7359897

>  <Supplier>
ChemBridge

>  <clogP>
1.266000000000000e+000

>  <RB>
2

>  <tPSA>
5.836000000000000e+001

>  <Hacc>
1

>  <Hdon>
2

>  <LogSw>
-2.453000000000000e+000

>  <Group>
3

>  <Core>
051

$$$$
5917214
 OpenBabel03312015312D

 25 28  0  0  0  0  0  0  0  0999 V2000
   -0.0125    1.7125    0.0000 C   0  0  0  0  0  0  0  0  0  0  0  0
   -0.0125    1.0500    0.0000 C   0  0  0  0  0  0  0  0  0  0  0  0
    0.5667    2.0500    0.0000 C   0  0  0  0  0  0  0  0  0  0  0  0
    0.5667    0.7333    0.0000 N   0  0  0  0  0  0  0  0  0  0  0  0
    1.1292    1.7125    0.0000 N   0  0  0  0  0  0  0  0  0  0  0  0
   -1.1500    1.7125    0.0000 C   0  0  0  0  0  0  0  0  0  0  0  0
   -1.1500    1.0500    0.0000 C   0  0  0  0  0  0  0  0  0  0  0  0
   -0.5708    0.7333    0.0000 S   0  0  0  0  0  0  0  0  0  0  0  0
    1.1292    1.0500    0.0000 C   0  0  0  0  0  0  0  0  0  0  0  0
   -1.7125    0.7333    0.0000 C   0  0  0  0  0  0  0  0  0  0  0  0
   -2.2708    1.0500    0.0000 N   0  0  0  0  0  0  0  0  0  0  0  0
    0.5792    2.7208    0.0000 O   0  0  0  0  0  0  0  0  0  0  0  0
   -1.7125    0.0625    0.0000 O   0  0  0  0  0  0  0  0  0  0  0  0
    1.6292    2.1208    0.0000 C   0  0  0  0  0  0  0  0  0  0  0  0
   -1.7125    2.0500    0.0000 C   0  0  0  0  0  0  0  0  0  0  0  0
   -2.8500    0.7333    0.0000 C   0  0  0  0  0  0  0  0  0  0  0  0
    1.6500    0.6625    0.0000 C   0  0  0  0  0  0  0  0  0  0  0  0
   -2.8500    0.0708    0.0000 C   0  0  0  0  0  0  0  0  0  0  0  0
   -3.4125    1.0708    0.0000 C   0  0  0  0  0  0  0  0  0  0  0  0
    2.2667    1.9708    0.0000 C   0  0  0  0  0  0  0  0  0  0  0  0
    2.2792    0.7958    0.0000 C   0  0  0  0  0  0  0  0  0  0  0  0
   -3.9958    0.7500    0.0000 C   0  0  0  0  0  0  0  0  0  0  0  0
   -3.4333   -0.2667    0.0000 C   0  0  0  0  0  0  0  0  0  0  0  0
   -3.9958    0.0958    0.0000 C   0  0  0  0  0  0  0  0  0  0  0  0
    2.5542    1.3708    0.0000 C   0  0  0  0  0  0  0  0  0  0  0  0
  2  1  2  0  0  0  0
  3  1  1  0  0  0  0
  4  2  1  0  0  0  0
  5  3  1  0  0  0  0
  6  1  1  0  0  0  0
  7  6  2  0  0  0  0
  8  2  1  0  0  0  0
  8  7  1  0  0  0  0
  9  5  1  0  0  0  0
  9  4  2  0  0  0  0
 10  7  1  0  0  0  0
 11 10  1  0  0  0  0
 12  3  2  0  0  0  0
 13 10  2  0  0  0  0
 14  5  1  0  0  0  0
 15  6  1  0  0  0  0
 16 11  1  0  0  0  0
 17  9  1  0  0  0  0
 18 16  2  0  0  0  0
 19 16  1  0  0  0  0
 20 14  1  0  0  0  0
 21 17  1  0  0  0  0
 22 19  2  0  0  0  0
 23 18  1  0  0  0  0
 24 22  1  0  0  0  0
 24 23  2  0  0  0  0
 25 20  1  0  0  0  0
 25 21  1  0  0  0  0
M  END
>  <ID>
5917214

>  <Supplier>
ChemBridge

>  <clogP>
3.020000000000000e+000

>  <RB>
2

>  <tPSA>
6.399000000000000e+001

>  <Hacc>
3

>  <Hdon>
1

>  <LogSw>
-4.356000000000000e+000

>  <Group>
1

>  <Core>
063

$$$$
5917215
 OpenBabel03312015312D

 30 33  0  0  0  0  0  0  0  0999 V2000
   -3.2958    0.0500    0.0000 S   0  0  0  0  0  0  0  0  0  0  0  0
    0.6375    0.1500    0.0000 C   0  0  0  0  0  0  0  0  0  0  0  0
    0.6875    0.9000    0.0000 C   0  0  0  0  0  0  0  0  0  0  0  0
    1.3500   -0.1042    0.0000 S   0  0  0  0  0  0  0  0  0  0  0  0
    1.4167    1.0958    0.0000 C   0  0  0  0  0  0  0  0  0  0  0  0
   -1.3208   -0.3000    0.0000 C   0  0  0  0  0  0  0  0  0  0  0  0
    0.0042   -0.2500    0.0000 N   0  0  0  0  0  0  0  0  0  0  0  0
   -0.6625    0.1000    0.0000 C   0  0  0  0  0  0  0  0  0  0  0  0
    1.8167    0.4708    0.0000 C   0  0  0  0  0  0  0  0  0  0  0  0
   -3.9583    0.4208    0.0000 N   0  0  0  0  0  0  0  0  0  0  0  0
   -2.6208   -0.3292    0.0000 C   0  0  0  0  0  0  0  0  0  0  0  0
   -1.9708    0.0833    0.0000 C   0  0  0  0  0  0  0  0  0  0  0  0
    0.1167    1.3708    0.0000 C   0  0  0  0  0  0  0  0  0  0  0  0
   -0.4500    1.8458    0.0000 N   0  0  0  0  0  0  0  0  0  0  0  0
   -3.6625   -0.6000    0.0000 O   0  0  0  0  0  0  0  0  0  0  0  0
   -2.9125    0.7000    0.0000 O   0  0  0  0  0  0  0  0  0  0  0  0
   -1.3208   -1.0792    0.0000 C   0  0  0  0  0  0  0  0  0  0  0  0
   -0.6833    0.8625    0.0000 O   0  0  0  0  0  0  0  0  0  0  0  0
   -2.6208   -1.0667    0.0000 C   0  0  0  0  0  0  0  0  0  0  0  0
   -1.9708   -1.4500    0.0000 C   0  0  0  0  0  0  0  0  0  0  0  0
   -5.2708    1.1708    0.0000 O   0  0  0  0  0  0  0  0  0  0  0  0
   -3.9458    1.1958    0.0000 C   0  0  0  0  0  0  0  0  0  0  0  0
   -4.5958    0.0500    0.0000 C   0  0  0  0  0  0  0  0  0  0  0  0
   -0.6958   -1.4792    0.0000 Cl  0  0  0  0  0  0  0  0  0  0  0  0
    1.7542    1.7708    0.0000 C   0  0  0  0  0  0  0  0  0  0  0  0
    2.5792    0.5000    0.0000 C   0  0  0  0  0  0  0  0  0  0  0  0
   -5.2458    0.4208    0.0000 C   0  0  0  0  0  0  0  0  0  0  0  0
   -4.5958    1.5625    0.0000 C   0  0  0  0  0  0  0  0  0  0  0  0
    2.5167    1.8208    0.0000 C   0  0  0  0  0  0  0  0  0  0  0  0
    2.9292    1.1833    0.0000 C   0  0  0  0  0  0  0  0  0  0  0  0
  2  7  1  0  0  0  0
  3  2  2  0  0  0  0
  4  2  1  0  0  0  0
  5  3  1  0  0  0  0
  6 12  1  0  0  0  0
  6 17  2  0  0  0  0
  7  8  1  0  0  0  0
  8  6  1  0  0  0  0
  9  4  1  0  0  0  0
  9  5  2  0  0  0  0
 10  1  1  0  0  0  0
 11  1  1  0  0  0  0
 12 11  2  0  0  0  0
 13  3  1  0  0  0  0
 14 13  3  0  0  0  0
 15  1  2  0  0  0  0
 16  1  2  0  0  0  0
 17 20  1  0  0  0  0
 18  8  2  0  0  0  0
 19 11  1  0  0  0  0
 20 19  2  0  0  0  0
 21 27  1  0  0  0  0
 21 28  1  0  0  0  0
 22 10  1  0  0  0  0
 23 10  1  0  0  0  0
 24 17  1  0  0  0  0
 25  5  1  0  0  0  0
 26  9  1  0  0  0  0
 27 23  1  0  0  0  0
 28 22  1  0  0  0  0
 29 25  1  0  0  0  0
 30 26  1  0  0  0  0
 30 29  1  0  0  0  0
M  END
>  <ID>
5917215

>  <Supplier>
ChemBridge

>  <clogP>
2.380000000000000e+000

>  <RB>
3

>  <tPSA>
9.950000000000003e+001

>  <Hacc>
6

>  <Hdon>
1

>  <LogSw>
-4.893999999999998e+000

>  <Group>
1

>  <Core>
129

$$$$
9043081
 OpenBabel03312015312D

 18 19  0  0  0  0  0  0  0  0999 V2000
    4.0667    1.4833    0.0000 C   0  0  0  0  0  0  0  0  0  0  0  0
    4.7125    1.8583    0.0000 N   0  0  0  0  0  0  0  0  0  0  0  0
    3.4167    1.8583    0.0000 N   0  0  0  0  0  0  0  0  0  0  0  0
    4.0667    0.7333    0.0000 O   0  0  0  0  0  0  0  0  0  0  0  0
    5.3625    1.4833    0.0000 C   0  0  3  0  0  0  0  0  0  0  0  0
    4.7125    2.6083    0.0000 C   0  0  3  0  0  0  0  0  0  0  0  0
    2.7667    1.4833    0.0000 C   0  0  0  0  0  0  0  0  0  0  0  0
    2.1167    1.8583    0.0000 C   0  0  0  0  0  0  0  0  0  0  0  0
    1.4667    1.4833    0.0000 C   0  0  0  0  0  0  0  0  0  0  0  0
    6.0125    2.6083    0.0000 C   0  0  0  0  0  0  0  0  0  0  0  0
    2.1167    0.3583    0.0000 C   0  0  0  0  0  0  0  0  0  0  0  0
    2.7667    0.7333    0.0000 C   0  0  0  0  0  0  0  0  0  0  0  0
    6.0125    1.8583    0.0000 C   0  0  0  0  0  0  0  0  0  0  0  0
    5.3625    2.9833    0.0000 C   0  0  0  0  0  0  0  0  0  0  0  0
    4.0667    2.9833    0.0000 C   0  0  0  0  0  0  0  0  0  0  0  0
    5.3625    0.7333    0.0000 C   0  0  0  0  0  0  0  0  0  0  0  0
    1.4667    0.7333    0.0000 C   0  0  0  0  0  0  0  0  0  0  0  0
    0.8167    1.8583    0.0000 C   0  0  0  0  0  0  0  0  0  0  0  0
  2  1  1  0  0  0  0
  3  1  1  0  0  0  0
  4  1  2  0  0  0  0
  5  2  1  0  0  0  0
  6  2  1  0  0  0  0
  7  3  1  0  0  0  0
  8  7  2  0  0  0  0
  9  8  1  0  0  0  0
  9 17  2  0  0  0  0
 10 14  1  0  0  0  0
 10 13  1  0  0  0  0
 11 12  2  0  0  0  0
 12  7  1  0  0  0  0
 13  5  1  0  0  0  0
 14  6  1  0  0  0  0
 15  6  1  0  0  0  0
 16  5  1  0  0  0  0
 17 11  1  0  0  0  0
 18  9  1  0  0  0  0
M  END
>  <ID>
9043081

>  <Supplier>
ChemBridge

>  <clogP>
3.387000000000000e+000

>  <RB>
1

>  <tPSA>
3.234000000000000e+001

>  <Hacc>
1

>  <Hdon>
1

>  <LogSw>
-4.521999999999999e+000

>  <Group>
2

$$$$
5917210
 OpenBabel03312015312D

 18 19  0  0  0  0  0  0  0  0999 V2000
   -1.1625   -0.0667    0.0000 C   0  0  0  0  0  0  0  0  0  0  0  0
   -1.1625    0.6958    0.0000 N   0  0  0  0  0  0  0  0  0  0  0  0
   -0.5000   -0.4542    0.0000 N   0  0  0  0  0  0  0  0  0  0  0  0
   -1.8208   -0.4542    0.0000 N   0  0  0  0  0  0  0  0  0  0  0  0
   -0.5125    1.0708    0.0000 C   0  0  0  0  0  0  0  0  0  0  0  0
    0.1375    1.4500    0.0000 N   0  0  0  0  0  0  0  0  0  0  0  0
   -1.8125    1.0708    0.0000 C   0  0  0  0  0  0  0  0  0  0  0  0
   -1.8208   -1.2167    0.0000 C   0  0  0  0  0  0  0  0  0  0  0  0
   -0.5000   -1.2167    0.0000 C   0  0  0  0  0  0  0  0  0  0  0  0
   -1.1625   -1.6042    0.0000 C   0  0  0  0  0  0  0  0  0  0  0  0
   -1.8125    1.8208    0.0000 C   0  0  0  0  0  0  0  0  0  0  0  0
   -2.4833   -1.5875    0.0000 C   0  0  0  0  0  0  0  0  0  0  0  0
    0.1542   -1.5875    0.0000 C   0  0  0  0  0  0  0  0  0  0  0  0
   -2.4708    2.2125    0.0000 C   0  0  0  0  0  0  0  0  0  0  0  0
   -1.1500    2.2333    0.0000 C   0  0  0  0  0  0  0  0  0  0  0  0
   -1.1708    3.0000    0.0000 C   0  0  0  0  0  0  0  0  0  0  0  0
   -2.4958    2.9833    0.0000 C   0  0  0  0  0  0  0  0  0  0  0  0
   -1.8333    3.3833    0.0000 C   0  0  0  0  0  0  0  0  0  0  0  0
  2  1  1  0  0  0  0
  3  1  1  0  0  0  0
  4  1  2  0  0  0  0
  5  2  1  0  0  0  0
  6  5  3  0  0  0  0
  7  2  1  0  0  0  0
  8  4  1  0  0  0  0
  9  3  2  0  0  0  0
  9 10  1  0  0  0  0
 10  8  2  0  0  0  0
 11  7  1  0  0  0  0
 12  8  1  0  0  0  0
 13  9  1  0  0  0  0
 14 11  1  0  0  0  0
 15 11  2  0  0  0  0
 16 15  1  0  0  0  0
 17 14  2  0  0  0  0
 17 18  1  0  0  0  0
 18 16  2  0  0  0  0
M  END
>  <ID>
5917210

>  <Supplier>
ChemBridge

>  <clogP>
2.780000000000000e+000

>  <RB>
3

>  <tPSA>
5.281000000000000e+001

>  <Hacc>
3

>  <Hdon>
0

>  <LogSw>
-3.313000000000000e+000

>  <Group>
2

$$$$
9043086
 OpenBabel03312015312D

 25 27  0  0  0  0  0  0  0  0999 V2000
    4.4042    1.7375    0.0000 C   0  0  0  0  0  0  0  0  0  0  0  0
    5.0542    1.3625    0.0000 N   0  0  0  0  0  0  0  0  0  0  0  0
    3.7542    1.3625    0.0000 N   0  0  0  0  0  0  0  0  0  0  0  0
    6.3542    0.6125    0.0000 N   0  0  0  0  0  0  0  0  0  0  0  0
    7.6542    0.6125    0.0000 C   0  0  0  0  0  0  0  0  0  0  0  0
    7.0042    0.2375    0.0000 C   0  0  0  0  0  0  0  0  0  0  0  0
    4.4042    2.4875    0.0000 O   0  0  0  0  0  0  0  0  0  0  0  0
    5.7042    1.7375    0.0000 C   0  0  0  0  0  0  0  0  0  0  0  0
    5.0542    0.6125    0.0000 C   0  0  0  0  0  0  0  0  0  0  0  0
    8.3042    0.2375    0.0000 C   0  0  0  0  0  0  0  0  0  0  0  0
    3.1042    1.7375    0.0000 C   0  0  0  0  0  0  0  0  0  0  0  0
    5.7042    0.2375    0.0000 C   0  0  0  0  0  0  0  0  0  0  0  0
    6.3542    1.3625    0.0000 C   0  0  0  0  0  0  0  0  0  0  0  0
    1.8042    2.4875    0.0000 C   0  0  0  0  0  0  0  0  0  0  0  0
    2.4542    1.3625    0.0000 C   0  0  0  0  0  0  0  0  0  0  0  0
    3.1042    2.4875    0.0000 C   0  0  0  0  0  0  0  0  0  0  0  0
    2.4542    2.8625    0.0000 C   0  0  0  0  0  0  0  0  0  0  0  0
    1.8042    1.7375    0.0000 C   0  0  0  0  0  0  0  0  0  0  0  0
    1.1542    2.8625    0.0000 O   0  0  0  0  0  0  0  0  0  0  0  0
    7.6542    1.3625    0.0000 C   0  0  0  0  0  0  0  0  0  0  0  0
    8.3042   -0.5125    0.0000 C   0  0  0  0  0  0  0  0  0  0  0  0
    8.9542    0.6125    0.0000 C   0  0  0  0  0  0  0  0  0  0  0  0
    0.5042    2.4875    0.0000 C   0  0  0  0  0  0  0  0  0  0  0  0
    8.3042    1.7375    0.0000 C   0  0  0  0  0  0  0  0  0  0  0  0
    8.9542    1.3625    0.0000 C   0  0  0  0  0  0  0  0  0  0  0  0
  2  1  1  0  0  0  0
  3  1  1  0  0  0  0
  4 12  1  0  0  0  0
  5  6  1  0  0  0  0
  6  4  1  0  0  0  0
  7  1  2  0  0  0  0
  8  2  1  0  0  0  0
  9  2  1  0  0  0  0
 10  5  1  0  0  0  0
 11  3  1  0  0  0  0
 12  9  1  0  0  0  0
 13  8  1  0  0  0  0
 13  4  1  0  0  0  0
 14 17  2  0  0  0  0
 15 11  1  0  0  0  0
 16 11  2  0  0  0  0
 17 16  1  0  0  0  0
 18 15  2  0  0  0  0
 18 14  1  0  0  0  0
 19 14  1  0  0  0  0
 20  5  2  0  0  0  0
 21 10  1  0  0  0  0
 22 10  2  0  0  0  0
 22 25  1  0  0  0  0
 23 19  1  0  0  0  0
 24 20  1  0  0  0  0
 25 24  2  0  0  0  0
M  END
>  <ID>
9043086

>  <Supplier>
ChemBridge

>  <clogP>
3.642000000000000e+000

>  <RB>
3

>  <tPSA>
4.481000000000002e+001

>  <Hacc>
3

>  <Hdon>
1

>  <LogSw>
-4.497000000000000e+000

>  <Group>
2

>  <Core>
166

$$$$
9043084
 OpenBabel03312015312D

 23 25  0  0  0  0  0  0  0  0999 V2000
    3.3542    0.7083    0.0000 N   0  0  0  0  0  0  0  0  0  0  0  0
    2.6667    0.4083    0.0000 C   0  0  0  0  0  0  0  0  0  0  0  0
    2.7417   -0.3417    0.0000 N   0  0  0  0  0  0  0  0  0  0  0  0
    3.8542    0.1500    0.0000 C   0  0  0  0  0  0  0  0  0  0  0  0
    3.4792   -0.5000    0.0000 N   0  0  0  0  0  0  0  0  0  0  0  0
    4.6000    0.2333    0.0000 S   0  0  0  0  0  0  0  0  0  0  0  0
    2.0167    0.7833    0.0000 C   0  0  0  0  0  0  0  0  0  0  0  0
    3.5042    1.4458    0.0000 C   0  0  0  0  0  0  0  0  0  0  0  0
    0.7167    1.5333    0.0000 N   0  0  0  0  0  0  0  0  0  0  0  0
    4.2167    1.6750    0.0000 C   0  0  0  0  0  0  0  0  0  0  0  0
    4.3792    2.4083    0.0000 C   0  0  0  0  0  0  0  0  0  0  0  0
    5.0417   -0.3792    0.0000 C   0  0  0  0  0  0  0  0  0  0  0  0
    7.2792   -0.1417    0.0000 C   0  0  0  0  0  0  0  0  0  0  0  0
    5.7875   -0.3000    0.0000 C   0  0  0  0  0  0  0  0  0  0  0  0
    8.0250   -0.0625    0.0000 F   0  0  0  0  0  0  0  0  0  0  0  0
    6.8375    0.4708    0.0000 C   0  0  0  0  0  0  0  0  0  0  0  0
    6.9750   -0.8292    0.0000 C   0  0  0  0  0  0  0  0  0  0  0  0
    6.0917    0.3875    0.0000 C   0  0  0  0  0  0  0  0  0  0  0  0
    6.2292   -0.9042    0.0000 C   0  0  0  0  0  0  0  0  0  0  0  0
    0.7167    0.7833    0.0000 C   0  0  0  0  0  0  0  0  0  0  0  0
    1.3667    1.9083    0.0000 C   0  0  0  0  0  0  0  0  0  0  0  0
    1.3667    0.4083    0.0000 C   0  0  0  0  0  0  0  0  0  0  0  0
    2.0167    1.5333    0.0000 C   0  0  0  0  0  0  0  0  0  0  0  0
  2  1  1  0  0  0  0
  3  2  2  0  0  0  0
  3  5  1  0  0  0  0
  4  1  1  0  0  0  0
  5  4  2  0  0  0  0
  6  4  1  0  0  0  0
  7  2  1  0  0  0  0
  8  1  1  0  0  0  0
  9 21  1  0  0  0  0
  9 20  2  0  0  0  0
 10  8  1  0  0  0  0
 11 10  2  0  0  0  0
 12  6  1  0  0  0  0
 13 17  2  0  0  0  0
 14 12  1  0  0  0  0
 15 13  1  0  0  0  0
 16 18  2  0  0  0  0
 16 13  1  0  0  0  0
 17 19  1  0  0  0  0
 18 14  1  0  0  0  0
 19 14  2  0  0  0  0
 20 22  1  0  0  0  0
 21 23  2  0  0  0  0
 22  7  2  0  0  0  0
 23  7  1  0  0  0  0
M  END
>  <ID>
9043084

>  <Supplier>
ChemBridge

>  <clogP>
2.786000000000000e+000

>  <RB>
6

>  <tPSA>
4.359999999999999e+001

>  <Hacc>
3

>  <Hdon>
0

>  <LogSw>
-5.216000000000000e+000

>  <Group>
2

>  <Core>
028

$$$$
5154334
 OpenBabel03312015312D

 21 21  0  0  0  0  0  0  0  0999 V2000
    1.7000    0.4208    0.0000 S   0  0  0  0  0  0  0  0  0  0  0  0
   -0.5000    1.1833    0.0000 C   0  0  0  0  0  0  0  0  0  0  0  0
    0.3792    1.1833    0.0000 N   0  0  0  0  0  0  0  0  0  0  0  0
   -0.9458    1.9458    0.0000 C   0  0  0  0  0  0  0  0  0  0  0  0
   -0.9458    0.4208    0.0000 C   0  0  0  0  0  0  0  0  0  0  0  0
    0.8167    0.4208    0.0000 O   0  0  0  0  0  0  0  0  0  0  0  0
    2.5792    0.4208    0.0000 C   0  0  0  0  0  0  0  0  0  0  0  0
    1.7000    1.3000    0.0000 O   0  0  0  0  0  0  0  0  0  0  0  0
    1.7000   -0.4792    0.0000 O   0  0  0  0  0  0  0  0  0  0  0  0
   -1.7208    0.8625    0.0000 F   0  0  0  0  0  0  0  0  0  0  0  0
   -1.4000   -0.3542    0.0000 F   0  0  0  0  0  0  0  0  0  0  0  0
   -1.4000    2.7083    0.0000 F   0  0  0  0  0  0  0  0  0  0  0  0
   -1.7208    1.4833    0.0000 F   0  0  0  0  0  0  0  0  0  0  0  0
   -0.1833    2.3833    0.0000 F   0  0  0  0  0  0  0  0  0  0  0  0
   -0.1833   -0.0292    0.0000 F   0  0  0  0  0  0  0  0  0  0  0  0
    3.0167   -0.3542    0.0000 C   0  0  0  0  0  0  0  0  0  0  0  0
    3.0167    1.1833    0.0000 C   0  0  0  0  0  0  0  0  0  0  0  0
    3.9000    1.1833    0.0000 C   0  0  0  0  0  0  0  0  0  0  0  0
    3.9000   -0.3542    0.0000 C   0  0  0  0  0  0  0  0  0  0  0  0
    4.3375    0.4208    0.0000 C   0  0  0  0  0  0  0  0  0  0  0  0
    5.2167    0.4208    0.0000 C   0  0  0  0  0  0  0  0  0  0  0  0
  2  3  2  0  0  0  0
  3  6  1  0  0  0  0
  4  2  1  0  0  0  0
  5  2  1  0  0  0  0
  6  1  1  0  0  0  0
  7  1  1  0  0  0  0
  8  1  2  0  0  0  0
  9  1  2  0  0  0  0
 10  5  1  0  0  0  0
 11  5  1  0  0  0  0
 12  4  1  0  0  0  0
 13  4  1  0  0  0  0
 14  4  1  0  0  0  0
 15  5  1  0  0  0  0
 16  7  2  0  0  0  0
 17  7  1  0  0  0  0
 18 17  2  0  0  0  0
 19 16  1  0  0  0  0
 20 18  1  0  0  0  0
 20 19  2  0  0  0  0
 21 20  1  0  0  0  0
M  END
>  <ID>
5154334

>  <Supplier>
ChemBridge

>  <clogP>
2.740000000000000e+000

>  <RB>
3

>  <tPSA>
5.573000000000000e+001

>  <Hacc>
4

>  <Hdon>
0

>  <LogSw>
-3.984000000000000e+000

>  <Group>
1

$$$$
5154335
 OpenBabel03312015312D

 18 18  0  0  0  0  0  0  0  0999 V2000
   -2.0458   -1.1542    0.0000 C   0  0  0  0  0  0  0  0  0  0  0  0
   -3.5208   -0.3292    0.0000 C   0  0  0  0  0  0  0  0  0  0  0  0
   -2.8833   -2.6375    0.0000 C   0  0  0  0  0  0  0  0  0  0  0  0
   -1.2000    0.3125    0.0000 C   0  0  0  0  0  0  0  0  0  0  0  0
   -0.5625   -2.0292    0.0000 N   0  0  0  0  0  0  0  0  0  0  0  0
   -0.3625    1.7958    0.0000 N   0  0  0  0  0  0  0  0  0  0  0  0
   -4.3625   -1.8000    0.0000 F   0  0  0  0  0  0  0  0  0  0  0  0
   -2.6833    1.1500    0.0000 F   0  0  0  0  0  0  0  0  0  0  0  0
   -1.3958   -3.4875    0.0000 F   0  0  0  0  0  0  0  0  0  0  0  0
   -4.3625   -1.8000    0.0000 F   0  0  0  0  0  0  0  0  0  0  0  0
   -3.7208   -4.1167    0.0000 F   0  0  0  0  0  0  0  0  0  0  0  0
   -5.0000    0.5125    0.0000 F   0  0  0  0  0  0  0  0  0  0  0  0
    0.9375   -1.1542    0.0000 C   0  0  0  0  0  0  0  0  0  0  0  0
    2.4375   -2.0042    0.0000 C   0  0  0  0  0  0  0  0  0  0  0  0
    0.9375    0.5458    0.0000 C   0  0  0  0  0  0  0  0  0  0  0  0
    2.4000    1.4125    0.0000 C   0  0  0  0  0  0  0  0  0  0  0  0
    3.9000   -1.1292    0.0000 C   0  0  0  0  0  0  0  0  0  0  0  0
    3.9000    0.5625    0.0000 C   0  0  0  0  0  0  0  0  0  0  0  0
  2  1  1  0  0  0  0
  3  1  1  0  0  0  0
  4  1  1  0  0  0  0
  5  1  1  0  0  0  0
  6  4  3  0  0  0  0
  7  2  1  0  0  0  0
  8  2  1  0  0  0  0
  9  3  1  0  0  0  0
 10  3  1  0  0  0  0
 11  3  1  0  0  0  0
 12  2  1  0  0  0  0
 13  5  1  0  0  0  0
 14 13  2  0  0  0  0
 15 13  1  0  0  0  0
 16 15  2  0  0  0  0
 17 14  1  0  0  0  0
 17 18  2  0  0  0  0
 18 16  1  0  0  0  0
M  END
>  <ID>
5154335

>  <Supplier>
ChemBridge

>  <clogP>
2.890000000000000e+000

>  <RB>
2

>  <tPSA>
3.582000000000000e+001

>  <Hacc>
1

>  <Hdon>
1

>  <LogSw>
-3.889000000000000e+000

>  <Group>
3

$$$$
5154333
 OpenBabel03312015312D

 23 23  0  0  0  0  0  0  0  0999 V2000
    2.4042    1.3958    0.0000 C   0  0  0  0  0  0  0  0  0  0  0  0
   -0.3500   -0.2042    0.0000 N   0  3  0  0  0  0  0  0  0  0  0  0
    3.3292    1.9583    0.0000 C   0  0  0  0  0  0  0  0  0  0  0  0
    2.9667    0.4708    0.0000 C   0  0  0  0  0  0  0  0  0  0  0  0
    1.8667    2.3125    0.0000 C   0  0  0  0  0  0  0  0  0  0  0  0
    1.5042    0.8500    0.0000 S   0  0  0  0  0  0  0  0  0  0  0  0
   -0.3500    0.8500    0.0000 C   0  0  0  0  0  0  0  0  0  0  0  0
    0.5667    1.3958    0.0000 C   0  0  0  0  0  0  0  0  0  0  0  0
   -1.2708   -0.7292    0.0000 O   0  5  0  0  0  0  0  0  0  0  0  0
    0.5667   -0.7500    0.0000 O   0  0  0  0  0  0  0  0  0  0  0  0
    3.8875    1.0333    0.0000 F   0  0  0  0  0  0  0  0  0  0  0  0
    4.2500    2.4958    0.0000 F   0  0  0  0  0  0  0  0  0  0  0  0
    3.5042   -0.4500    0.0000 F   0  0  0  0  0  0  0  0  0  0  0  0
    3.8875    1.0333    0.0000 F   0  0  0  0  0  0  0  0  0  0  0  0
    2.0500   -0.0875    0.0000 F   0  0  0  0  0  0  0  0  0  0  0  0
    2.7875    2.8708    0.0000 F   0  0  0  0  0  0  0  0  0  0  0  0
    1.3042    3.2333    0.0000 F   0  0  0  0  0  0  0  0  0  0  0  0
    0.9500    1.7708    0.0000 F   0  0  0  0  0  0  0  0  0  0  0  0
    2.7875    2.8708    0.0000 F   0  0  0  0  0  0  0  0  0  0  0  0
   -1.2708    1.3708    0.0000 C   0  0  0  0  0  0  0  0  0  0  0  0
    0.5667    2.4583    0.0000 C   0  0  0  0  0  0  0  0  0  0  0  0
   -1.2708    2.4333    0.0000 C   0  0  0  0  0  0  0  0  0  0  0  0
   -0.3500    2.9708    0.0000 C   0  0  0  0  0  0  0  0  0  0  0  0
  2  7  1  0  0  0  0
  3  1  1  0  0  0  0
  4  1  1  0  0  0  0
  5  1  1  0  0  0  0
  6  1  1  0  0  0  0
  7  8  2  0  0  0  0
  8  6  1  0  0  0  0
  9  2  1  0  0  0  0
 10  2  2  0  0  0  0
 11  3  1  0  0  0  0
 12  3  1  0  0  0  0
 13  4  1  0  0  0  0
 14  4  1  0  0  0  0
 15  4  1  0  0  0  0
 16  3  1  0  0  0  0
 17  5  1  0  0  0  0
 18  5  1  0  0  0  0
 19  5  1  0  0  0  0
 20  7  1  0  0  0  0
 21  8  1  0  0  0  0
 22 23  1  0  0  0  0
 22 20  2  0  0  0  0
 23 21  2  0  0  0  0
M  CHG  2   2   1   9  -1
M  END
>  <ID>
5154333

>  <Supplier>
ChemBridge

>  <clogP>
5.950000000000000e+000

>  <RB>
2

>  <tPSA>
4.313999999999999e+001

>  <Hacc>
2

>  <Hdon>
0

>  <LogSw>
-7.392000000000000e+000

>  <Group>
2

$$$$
5348067
 OpenBabel03312015312D

 22 24  0  0  0  0  0  0  0  0999 V2000
   -1.9458    0.8500    0.0000 C   0  0  0  0  0  0  0  0  0  0  0  0
   -1.2958   -0.3375    0.0000 N   0  0  0  0  0  0  0  0  0  0  0  0
   -2.3208    0.2500    0.0000 C   0  0  0  0  0  0  0  0  0  0  0  0
   -2.2333    1.4625    0.0000 C   0  0  0  0  0  0  0  0  0  0  0  0
   -1.9958   -0.3375    0.0000 C   0  0  0  0  0  0  0  0  0  0  0  0
    0.6875   -0.6542    0.0000 C   0  0  0  0  0  0  0  0  0  0  0  0
   -0.9458    0.2125    0.0000 C   0  0  0  0  0  0  0  0  0  0  0  0
    1.0375   -1.3167    0.0000 S   0  0  0  0  0  0  0  0  0  0  0  0
    0.0000   -0.5042    0.0000 C   0  0  0  0  0  0  0  0  0  0  0  0
   -0.2333    0.2125    0.0000 C   0  0  0  0  0  0  0  0  0  0  0  0
   -1.2708    0.8500    0.0000 C   0  0  0  0  0  0  0  0  0  0  0  0
    1.7167   -1.2292    0.0000 C   0  0  0  0  0  0  0  0  0  0  0  0
   -2.9625    1.4625    0.0000 O   0  0  0  0  0  0  0  0  0  0  0  0
    1.2875   -0.2042    0.0000 C   0  0  0  0  0  0  0  0  0  0  0  0
    1.8792   -0.5667    0.0000 C   0  0  0  0  0  0  0  0  0  0  0  0
   -1.8625    2.0458    0.0000 O   0  0  0  0  0  0  0  0  0  0  0  0
   -2.9958    0.2500    0.0000 C   0  0  0  0  0  0  0  0  0  0  0  0
   -2.3458   -0.9167    0.0000 C   0  0  0  0  0  0  0  0  0  0  0  0
   -0.9958    2.0500    0.0000 C   0  0  0  0  0  0  0  0  0  0  0  0
   -3.3708   -0.3167    0.0000 C   0  0  0  0  0  0  0  0  0  0  0  0
   -0.6125    1.3500    0.0000 C   0  0  0  0  0  0  0  0  0  0  0  0
   -3.0458   -0.9167    0.0000 C   0  0  0  0  0  0  0  0  0  0  0  0
  2  7  1  0  0  0  0
  2  5  2  0  0  0  0
  3  1  2  0  0  0  0
  4  1  1  0  0  0  0
  5  3  1  0  0  0  0
  6  9  1  0  0  0  0
  7 11  2  0  0  0  0
  8  6  1  0  0  0  0
  9 10  2  0  0  0  0
 10  7  1  0  0  0  0
 11  1  1  0  0  0  0
 12  8  1  0  0  0  0
 12 15  2  0  0  0  0
 13  4  2  0  0  0  0
 14  6  2  0  0  0  0
 15 14  1  0  0  0  0
 16  4  1  0  0  0  0
 17  3  1  0  0  0  0
 18  5  1  0  0  0  0
 18 22  2  0  0  0  0
 19 16  1  0  0  0  0
 20 17  2  0  0  0  0
 21 19  1  0  0  0  0
 22 20  1  0  0  0  0
M  END
>  <ID>
5348067

>  <Supplier>
ChemBridge

>  <clogP>
4.609999999999999e+000

>  <RB>
3

>  <tPSA>
3.919000000000000e+001

>  <Hacc>
3

>  <Hdon>
0

>  <LogSw>
-5.393000000000000e+000

>  <Group>
3

>  <Core>
275

$$$$
5154338
 OpenBabel03312015312D

 28 28  0  0  0  0  0  0  0  0999 V2000
   -1.6500   -1.4000    0.0000 C   0  0  0  0  0  0  0  0  0  0  0  0
   -1.4500    0.9625    0.0000 N   0  0  0  0  0  0  0  0  0  0  0  0
   -0.3708   -0.3167    0.0000 C   0  0  0  0  0  0  0  0  0  0  0  0
   -2.7333   -0.1167    0.0000 C   0  0  0  0  0  0  0  0  0  0  0  0
   -4.3958    0.0458    0.0000 C   0  0  0  0  0  0  0  0  0  0  0  0
   -1.4333   -3.0542    0.0000 C   0  0  0  0  0  0  0  0  0  0  0  0
   -3.1500   -2.1000    0.0000 C   0  0  0  0  0  0  0  0  0  0  0  0
   -1.3125    2.6458    0.0000 C   0  0  0  0  0  0  0  0  0  0  0  0
   -5.3500   -1.3375    0.0000 C   0  0  0  0  0  0  0  0  0  0  0  0
   -5.1125    1.5625    0.0000 C   0  0  0  0  0  0  0  0  0  0  0  0
    0.9042    0.7625    0.0000 F   0  0  0  0  0  0  0  0  0  0  0  0
    1.2500   -0.7167    0.0000 F   0  0  0  0  0  0  0  0  0  0  0  0
   -2.6958    3.5833    0.0000 O   0  0  0  0  0  0  0  0  0  0  0  0
    0.2500   -2.8375    0.0000 F   0  0  0  0  0  0  0  0  0  0  0  0
   -3.0958   -3.2792    0.0000 F   0  0  0  0  0  0  0  0  0  0  0  0
   -1.2125   -4.7167    0.0000 F   0  0  0  0  0  0  0  0  0  0  0  0
   -4.6708   -2.8167    0.0000 F   0  0  0  0  0  0  0  0  0  0  0  0
   -2.4333   -3.6167    0.0000 F   0  0  0  0  0  0  0  0  0  0  0  0
   -3.8708   -0.5792    0.0000 F   0  0  0  0  0  0  0  0  0  0  0  0
   -5.8125    3.0833    0.0000 F   0  0  0  0  0  0  0  0  0  0  0  0
   -6.6292    0.8625    0.0000 F   0  0  0  0  0  0  0  0  0  0  0  0
   -3.5958    2.2833    0.0000 F   0  0  0  0  0  0  0  0  0  0  0  0
   -3.9708   -2.3000    0.0000 F   0  0  0  0  0  0  0  0  0  0  0  0
   -6.7292   -0.3792    0.0000 F   0  0  0  0  0  0  0  0  0  0  0  0
   -6.3042   -2.7167    0.0000 F   0  0  0  0  0  0  0  0  0  0  0  0
    0.2042    3.3458    0.0000 O   0  0  0  0  0  0  0  0  0  0  0  0
    0.3667    5.0000    0.0000 C   0  0  0  0  0  0  0  0  0  0  0  0
    1.8667    5.7167    0.0000 C   0  0  0  0  0  0  0  0  0  0  0  0
  2  4  1  0  0  0  0
  3  1  1  0  0  0  0
  3  2  1  0  0  0  0
  4  1  1  0  0  0  0
  5  4  2  0  0  0  0
  6  1  1  0  0  0  0
  7  1  1  0  0  0  0
  8  2  1  0  0  0  0
  9  5  1  0  0  0  0
 10  5  1  0  0  0  0
 11  3  1  0  0  0  0
 12  3  1  0  0  0  0
 13  8  2  0  0  0  0
 14  6  1  0  0  0  0
 15  6  1  0  0  0  0
 16  6  1  0  0  0  0
 17  7  1  0  0  0  0
 18  7  1  0  0  0  0
 19  7  1  0  0  0  0
 20 10  1  0  0  0  0
 21 10  1  0  0  0  0
 22 10  1  0  0  0  0
 23  9  1  0  0  0  0
 24  9  1  0  0  0  0
 25  9  1  0  0  0  0
 26  8  1  0  0  0  0
 27 26  1  0  0  0  0
 28 27  1  0  0  0  0
M  END
>  <ID>
5154338

>  <Supplier>
ChemBridge

>  <clogP>
1.390000000000000e+000

>  <RB>
0

>  <tPSA>
2.954000000000000e+001

>  <Hacc>
2

>  <Hdon>
0

>  <LogSw>
-3.661000000000000e+000

>  <Group>
2

$$$$
9036114
 OpenBabel03312015312D

 20 21  0  0  0  0  0  0  0  0999 V2000
    2.5875    1.8708    0.0000 N   0  0  0  0  0  0  0  0  0  0  0  0
    3.0292    1.2708    0.0000 C   0  0  0  0  0  0  0  0  0  0  0  0
    3.7417    2.2458    0.0000 C   0  0  3  0  0  0  0  0  0  0  0  0
    4.3500    2.6875    0.0000 C   0  0  0  0  0  0  0  0  0  0  0  0
    3.0292    2.4833    0.0000 C   0  0  0  0  0  0  0  0  0  0  0  0
    3.7417    1.4958    0.0000 C   0  0  0  0  0  0  0  0  0  0  0  0
    5.0292    2.3833    0.0000 N   0  0  0  0  0  0  0  0  0  0  0  0
    1.8375    1.8708    0.0000 C   0  0  0  0  0  0  0  0  0  0  0  0
    2.7917    0.5500    0.0000 O   0  0  0  0  0  0  0  0  0  0  0  0
    4.2667    3.4333    0.0000 O   0  0  0  0  0  0  0  0  0  0  0  0
    5.6417    2.8333    0.0000 C   0  0  3  0  0  0  0  0  0  0  0  0
    6.9292    2.9583    0.0000 O   0  0  0  0  0  0  0  0  0  0  0  0
    1.4625    2.5208    0.0000 C   0  0  0  0  0  0  0  0  0  0  0  0
    1.4625    1.2208    0.0000 C   0  0  0  0  0  0  0  0  0  0  0  0
    6.3250    2.5208    0.0000 C   0  0  0  0  0  0  0  0  0  0  0  0
    7.6167    2.6583    0.0000 C   0  0  0  0  0  0  0  0  0  0  0  0
    5.5625    3.5708    0.0000 C   0  0  0  0  0  0  0  0  0  0  0  0
    0.7125    1.2208    0.0000 C   0  0  0  0  0  0  0  0  0  0  0  0
    0.7125    2.5208    0.0000 C   0  0  0  0  0  0  0  0  0  0  0  0
    0.3375    1.8708    0.0000 C   0  0  0  0  0  0  0  0  0  0  0  0
  2  1  1  0  0  0  0
  3  5  1  0  0  0  0
  4  3  1  0  0  0  0
  5  1  1  0  0  0  0
  6  2  1  0  0  0  0
  6  3  1  0  0  0  0
  7  4  1  0  0  0  0
  8  1  1  0  0  0  0
  9  2  2  0  0  0  0
 10  4  2  0  0  0  0
 11  7  1  0  0  0  0
 12 15  1  0  0  0  0
 13  8  2  0  0  0  0
 14  8  1  0  0  0  0
 15 11  1  0  0  0  0
 16 12  1  0  0  0  0
 17 11  1  0  0  0  0
 18 14  2  0  0  0  0
 19 13  1  0  0  0  0
 20 18  1  0  0  0  0
 20 19  2  0  0  0  0
M  END
>  <ID>
9036114

>  <Supplier>
ChemBridge

>  <clogP>
2.196000000000000e+000

>  <RB>
4

>  <tPSA>
5.863999999999997e+001

>  <Hacc>
3

>  <Hdon>
1

>  <LogSw>
-3.091000000000000e+000

>  <Group>
2

>  <Core>
124

$$$$
6934605
 OpenBabel03312015312D

 26 28  0  0  0  0  0  0  0  0999 V2000
    1.7500   -1.0292    0.0000 C   0  0  0  0  0  0  0  0  0  0  0  0
    2.4417   -0.2292    0.0000 N   0  0  0  0  0  0  0  0  0  0  0  0
    1.4125   -0.4542    0.0000 C   0  0  0  0  0  0  0  0  0  0  0  0
    1.8500    0.0333    0.0000 C   0  0  0  0  0  0  0  0  0  0  0  0
    2.3792   -0.8792    0.0000 C   0  0  3  0  0  0  0  0  0  0  0  0
    1.4625   -1.6417    0.0000 C   0  0  0  0  0  0  0  0  0  0  0  0
    0.8000   -1.7125    0.0000 C   0  0  0  0  0  0  0  0  0  0  0  0
    2.9125   -1.3167    0.0000 C   0  0  0  0  0  0  0  0  0  0  0  0
    0.3042   -2.3750    0.0000 O   0  0  0  0  0  0  0  0  0  0  0  0
    0.3167   -1.0375    0.0000 C   0  0  0  0  0  0  0  0  0  0  0  0
   -0.4708   -2.1125    0.0000 C   0  0  0  0  0  0  0  0  0  0  0  0
   -0.4708   -1.2875    0.0000 C   0  0  0  0  0  0  0  0  0  0  0  0
    1.6625    0.6958    0.0000 O   0  0  0  0  0  0  0  0  0  0  0  0
    3.5375   -1.0917    0.0000 C   0  0  0  0  0  0  0  0  0  0  0  0
    1.8625   -2.1792    0.0000 O   0  0  0  0  0  0  0  0  0  0  0  0
    0.7375   -0.4042    0.0000 O   0  0  0  0  0  0  0  0  0  0  0  0
    3.0375    0.1458    0.0000 C   0  0  0  0  0  0  0  0  0  0  0  0
    4.0500   -1.5167    0.0000 C   0  0  0  0  0  0  0  0  0  0  0  0
    4.6750   -1.2917    0.0000 Br  0  0  0  0  0  0  0  0  0  0  0  0
    2.8000   -1.9792    0.0000 C   0  0  0  0  0  0  0  0  0  0  0  0
    3.3000   -2.3792    0.0000 C   0  0  0  0  0  0  0  0  0  0  0  0
    3.6167    0.9708    0.0000 O   0  0  0  0  0  0  0  0  0  0  0  0
   -1.1458   -2.5917    0.0000 C   0  0  0  0  0  0  0  0  0  0  0  0
    3.9375   -2.1667    0.0000 C   0  0  0  0  0  0  0  0  0  0  0  0
    2.9875    0.7958    0.0000 C   0  0  0  0  0  0  0  0  0  0  0  0
    3.7875    1.6083    0.0000 C   0  0  0  0  0  0  0  0  0  0  0  0
  2  5  1  0  0  0  0
  2  4  1  0  0  0  0
  3  1  2  0  0  0  0
  4  3  1  0  0  0  0
  5  1  1  0  0  0  0
  6  1  1  0  0  0  0
  7  6  1  0  0  0  0
  8  5  1  0  0  0  0
  9  7  1  0  0  0  0
 10  7  2  0  0  0  0
 11  9  1  0  0  0  0
 12 10  1  0  0  0  0
 12 11  2  0  0  0  0
 13  4  2  0  0  0  0
 14  8  1  0  0  0  0
 15  6  2  0  0  0  0
 16  3  1  0  0  0  0
 17  2  1  0  0  0  0
 18 14  2  0  0  0  0
 18 24  1  0  0  0  0
 19 18  1  0  0  0  0
 20  8  2  0  0  0  0
 21 20  1  0  0  0  0
 22 25  1  0  0  0  0
 23 11  1  0  0  0  0
 24 21  2  0  0  0  0
 25 17  1  0  0  0  0
 26 22  1  0  0  0  0
M  END
>  <ID>
6934605

>  <Supplier>
ChemBridge

>  <clogP>
3.840000000000000e+000

>  <RB>
5

>  <tPSA>
7.998000000000000e+001

>  <Hacc>
5

>  <Hdon>
1

>  <LogSw>
-5.543000000000000e+000

>  <Group>
2

>  <Core>
095

$$$$
9079778
 OpenBabel03312015312D

 20 21  0  0  0  0  0  0  0  0999 V2000
    4.2875    2.4875    0.0000 S   0  0  0  0  0  0  0  0  0  0  0  0
    4.6625    1.8458    0.0000 C   0  0  0  0  0  0  0  0  0  0  0  0
    5.4125    1.8458    0.0000 C   0  0  0  0  0  0  0  0  0  0  0  0
    3.5625    2.2958    0.0000 N   0  0  0  0  0  0  0  0  0  0  0  0
    4.9667    2.8083    0.0000 O   0  0  0  0  0  0  0  0  0  0  0  0
    4.0292    3.1958    0.0000 O   0  0  0  0  0  0  0  0  0  0  0  0
    5.7875    1.1958    0.0000 C   0  0  0  0  0  0  0  0  0  0  0  0
    3.0292    2.8333    0.0000 C   0  0  0  0  0  0  0  0  0  0  0  0
    2.3042    2.6333    0.0000 C   0  0  0  0  0  0  0  0  0  0  0  0
    1.7792    3.1708    0.0000 C   0  0  0  0  0  0  0  0  0  0  0  0
    5.4125    0.5458    0.0000 F   0  0  0  0  0  0  0  0  0  0  0  0
    5.7875    2.4875    0.0000 C   0  0  0  0  0  0  0  0  0  0  0  0
    6.5375    1.1958    0.0000 C   0  0  0  0  0  0  0  0  0  0  0  0
    2.1125    1.9083    0.0000 C   0  0  0  0  0  0  0  0  0  0  0  0
    1.9667    3.8958    0.0000 C   0  0  0  0  0  0  0  0  0  0  0  0
    1.0542    2.9708    0.0000 C   0  0  0  0  0  0  0  0  0  0  0  0
    6.5375    2.4875    0.0000 C   0  0  0  0  0  0  0  0  0  0  0  0
    6.9125    1.8458    0.0000 C   0  0  0  0  0  0  0  0  0  0  0  0
    1.3875    1.7125    0.0000 C   0  0  0  0  0  0  0  0  0  0  0  0
    0.8542    2.2458    0.0000 C   0  0  0  0  0  0  0  0  0  0  0  0
  2  1  1  0  0  0  0
  3  2  1  0  0  0  0
  4  1  1  0  0  0  0
  5  1  2  0  0  0  0
  6  1  2  0  0  0  0
  7  3  2  0  0  0  0
  8  4  1  0  0  0  0
  9  8  1  0  0  0  0
 10  9  2  0  0  0  0
 11  7  1  0  0  0  0
 12  3  1  0  0  0  0
 13  7  1  0  0  0  0
 13 18  2  0  0  0  0
 14  9  1  0  0  0  0
 15 10  1  0  0  0  0
 16 10  1  0  0  0  0
 17 12  2  0  0  0  0
 18 17  1  0  0  0  0
 19 14  2  0  0  0  0
 20 19  1  0  0  0  0
 20 16  2  0  0  0  0
M  END
>  <ID>
9079778

>  <Supplier>
ChemBridge

>  <clogP>
3.090000000000000e+000

>  <RB>
4

>  <tPSA>
4.616999999999997e+001

>  <Hacc>
3

>  <Hdon>
1

>  <LogSw>
-3.979000000000000e+000

>  <Group>
2

$$$$
6091016
 OpenBabel03312015312D

 17 17  0  0  0  0  0  0  0  0999 V2000
    3.6917   -2.1667    0.0000 C   0  0  0  0  0  0  0  0  0  0  0  0
    4.3417   -2.5417    0.0000 C   0  0  0  0  0  0  0  0  0  0  0  0
   -0.2083   -1.4167    0.0000 C   0  0  0  0  0  0  0  0  0  0  0  0
    3.0417   -2.5417    0.0000 N   0  0  0  0  0  0  0  0  0  0  0  0
    0.4417   -1.0417    0.0000 N   0  0  0  0  0  0  0  0  0  0  0  0
    3.6917   -1.4167    0.0000 O   0  0  0  0  0  0  0  0  0  0  0  0
    4.9917   -2.1667    0.0000 C   0  0  0  0  0  0  0  0  0  0  0  0
   -0.2083   -2.1667    0.0000 O   0  0  0  0  0  0  0  0  0  0  0  0
    4.9917   -1.4167    0.0000 O   0  0  0  0  0  0  0  0  0  0  0  0
    2.3917   -2.1667    0.0000 C   0  0  0  0  0  0  0  0  0  0  0  0
    1.0917   -1.4167    0.0000 C   0  0  0  0  0  0  0  0  0  0  0  0
    1.7417   -2.5417    0.0000 C   0  0  0  0  0  0  0  0  0  0  0  0
    1.7417   -1.0417    0.0000 C   0  0  0  0  0  0  0  0  0  0  0  0
    2.3917   -1.4167    0.0000 C   0  0  0  0  0  0  0  0  0  0  0  0
    1.0917   -2.1667    0.0000 C   0  0  0  0  0  0  0  0  0  0  0  0
   -0.8583   -1.0417    0.0000 C   0  0  0  0  0  0  0  0  0  0  0  0
    5.6417   -2.5417    0.0000 C   0  0  0  0  0  0  0  0  0  0  0  0
  2  1  1  0  0  0  0
  3  5  1  0  0  0  0
  4  1  1  0  0  0  0
  5 11  1  0  0  0  0
  6  1  2  0  0  0  0
  7  2  1  0  0  0  0
  8  3  2  0  0  0  0
  9  7  2  0  0  0  0
 10  4  1  0  0  0  0
 11 13  1  0  0  0  0
 12 10  2  0  0  0  0
 13 14  2  0  0  0  0
 14 10  1  0  0  0  0
 15 12  1  0  0  0  0
 15 11  2  0  0  0  0
 16  3  1  0  0  0  0
 17  7  1  0  0  0  0
M  END
>  <ID>
6091016

>  <Supplier>
ChemBridge

>  <clogP>
-3.900000000000000e-001

>  <RB>
4

>  <tPSA>
7.527000000000000e+001

>  <Hacc>
3

>  <Hdon>
2

>  <LogSw>
-1.886000000000000e+000

>  <Group>
3

>  <Core>
157

$$$$
7497602
 OpenBabel03312015313D

 25 28  0  0  0  0  0  0  0  0999 V2000
    5.4792   -2.3625   -0.1792 C   0  0  0  0  0  0  0  0  0  0  0  0
    6.2500   -2.0750    0.0000 N   0  0  0  0  0  0  0  0  0  0  0  0
    4.7917   -1.9042   -0.2375 C   0  0  0  0  0  0  0  0  0  0  0  0
    5.5167   -3.1917    0.0000 N   0  0  0  0  0  0  0  0  0  0  0  0
    4.0542   -2.2417   -0.0792 C   0  0  0  0  0  0  0  0  0  0  0  0
    2.0042   -0.8792    0.0000 C   0  0  0  0  0  0  0  0  0  0  0  0
    1.3167   -0.4167    0.0000 N   0  0  0  0  0  0  0  0  0  0  0  0
    6.7542   -2.7250    0.0000 C   0  0  0  0  0  0  0  0  0  0  0  0
    4.8417   -1.1125   -0.4625 C   0  0  0  0  0  0  0  0  0  0  0  0
    6.3000   -3.4042    0.0000 C   0  0  0  0  0  0  0  0  0  0  0  0
    1.9542   -1.7042    0.0000 C   0  0  0  0  0  0  0  0  0  0  0  0
    4.8917   -0.3167   -0.6792 N   0  0  0  0  0  0  0  0  0  0  0  0
    2.7417   -0.5125    0.0000 C   0  0  0  0  0  0  0  0  0  0  0  0
    3.3750   -1.7875   -0.1375 C   0  0  0  0  0  0  0  0  0  0  0  0
    2.6417   -2.1542    0.0000 C   0  0  0  0  0  0  0  0  0  0  0  0
    3.4292   -0.9667    0.0000 C   0  0  0  0  0  0  0  0  0  0  0  0
    1.2792    0.4000    0.0000 C   0  0  0  0  0  0  0  0  0  0  0  0
    0.5417   -0.7042    0.0000 C   0  0  0  0  0  0  0  0  0  0  0  0
    1.2167   -2.0750    0.0000 C   0  0  0  0  0  0  0  0  0  0  0  0
    7.5792   -2.7792    0.0000 C   0  0  0  0  0  0  0  0  0  0  0  0
    6.6625   -4.1417    0.0000 C   0  0  0  0  0  0  0  0  0  0  0  0
    0.4750    0.6208    0.0000 C   0  0  0  0  0  0  0  0  0  0  0  0
    0.0292   -0.0625    0.0000 C   0  0  0  0  0  0  0  0  0  0  0  0
    7.4875   -4.1917    0.0000 C   0  0  0  0  0  0  0  0  0  0  0  0
    7.9417   -3.5167    0.0000 C   0  0  0  0  0  0  0  0  0  0  0  0
  2  1  2  0  0  0  0
  3  1  1  0  0  0  0
  4  1  1  0  0  0  0
  5  3  2  0  0  0  0
  6 13  2  0  0  0  0
  7  6  1  0  0  0  0
  8  2  1  0  0  0  0
  9  3  1  0  0  0  0
 10  4  1  0  0  0  0
 10  8  2  0  0  0  0
 11 15  2  0  0  0  0
 11  6  1  0  0  0  0
 12  9  3  0  0  0  0
 13 16  1  0  0  0  0
 14  5  1  0  0  0  0
 15 14  1  0  0  0  0
 16 14  2  0  0  0  0
 17  7  1  0  0  0  0
 18  7  1  0  0  0  0
 19 11  1  0  0  0  0
 20  8  1  0  0  0  0
 21 10  1  0  0  0  0
 22 17  1  0  0  0  0
 22 23  1  0  0  0  0
 23 18  1  0  0  0  0
 24 21  2  0  0  0  0
 24 25  1  0  0  0  0
 25 20  2  0  0  0  0
M  END
>  <ID>
7497602

>  <Supplier>
ChemBridge

>  <clogP>
2.790000000000000e+000

>  <RB>
3

>  <tPSA>
5.571000000000002e+001

>  <Hacc>
2

>  <Hdon>
1

>  <LogSw>
-5.651000000000000e+000

>  <Group>
1

>  <Core>
112

$$$$
6207506
 OpenBabel03312015312D

 24 25  0  0  0  0  0  0  0  0999 V2000
    6.4542   -4.4542    0.0000 S   0  0  0  0  0  0  0  0  0  0  0  0
    6.4542   -3.6292    0.0000 N   0  0  0  0  0  0  0  0  0  0  0  0
    7.1667   -3.2167    0.0000 C   0  0  0  0  0  0  0  0  0  0  0  0
    7.8792   -3.6292    0.0000 C   0  0  0  0  0  0  0  0  0  0  0  0
    3.5875   -3.6167    0.0000 C   0  0  0  0  0  0  0  0  0  0  0  0
    8.6000   -3.2167    0.0000 N   0  0  0  0  0  0  0  0  0  0  0  0
    5.7417   -3.2167    0.0000 C   0  0  0  0  0  0  0  0  0  0  0  0
    4.3042   -3.2167    0.0000 C   0  0  0  0  0  0  0  0  0  0  0  0
    5.0292   -3.6417    0.0000 C   0  0  0  0  0  0  0  0  0  0  0  0
    7.0417   -5.0375    0.0000 O   0  0  0  0  0  0  0  0  0  0  0  0
    7.2792   -4.4542    0.0000 O   0  0  0  0  0  0  0  0  0  0  0  0
    7.8792   -4.4542    0.0000 O   0  0  0  0  0  0  0  0  0  0  0  0
    3.5792   -4.4417    0.0000 F   0  0  0  0  0  0  0  0  0  0  0  0
    2.8667   -4.0292    0.0000 F   0  0  0  0  0  0  0  0  0  0  0  0
    2.8792   -3.2042    0.0000 F   0  0  0  0  0  0  0  0  0  0  0  0
   10.0625   -2.3917    0.0000 O   0  0  0  0  0  0  0  0  0  0  0  0
    5.7417   -4.8625    0.0000 C   0  0  0  0  0  0  0  0  0  0  0  0
    9.3167   -3.6417    0.0000 C   0  0  0  0  0  0  0  0  0  0  0  0
    8.6042   -2.3750    0.0000 C   0  0  0  0  0  0  0  0  0  0  0  0
    5.7417   -2.3875    0.0000 C   0  0  0  0  0  0  0  0  0  0  0  0
    4.3042   -2.3875    0.0000 C   0  0  0  0  0  0  0  0  0  0  0  0
    5.0292   -1.9750    0.0000 C   0  0  0  0  0  0  0  0  0  0  0  0
    9.3375   -1.9667    0.0000 C   0  0  0  0  0  0  0  0  0  0  0  0
   10.0417   -3.2292    0.0000 C   0  0  0  0  0  0  0  0  0  0  0  0
  2  1  1  0  0  0  0
  3  2  1  0  0  0  0
  4  3  1  0  0  0  0
  5  8  1  0  0  0  0
  6  4  1  0  0  0  0
  7  2  1  0  0  0  0
  8  9  2  0  0  0  0
  9  7  1  0  0  0  0
 10  1  2  0  0  0  0
 11  1  2  0  0  0  0
 12  4  2  0  0  0  0
 13  5  1  0  0  0  0
 14  5  1  0  0  0  0
 15  5  1  0  0  0  0
 16 23  1  0  0  0  0
 17  1  1  0  0  0  0
 18  6  1  0  0  0  0
 19  6  1  0  0  0  0
 20  7  2  0  0  0  0
 21 22  2  0  0  0  0
 21  8  1  0  0  0  0
 22 20  1  0  0  0  0
 23 19  1  0  0  0  0
 24 18  1  0  0  0  0
 24 16  1  0  0  0  0
M  END
>  <ID>
6207506

>  <Supplier>
ChemBridge

>  <clogP>
2.080000000000000e+000

>  <RB>
3

>  <tPSA>
6.691999999999999e+001

>  <Hacc>
4

>  <Hdon>
0

>  <LogSw>
-3.647000000000000e+000

>  <Group>
3

>  <Core>
084

$$$$
5187349
 OpenBabel03312015312D

 23 24  0  0  0  0  0  0  0  0999 V2000
   -1.1500   -0.7500    0.0000 C   0  0  0  0  0  0  0  0  0  0  0  0
    0.0500   -0.7292    0.0000 N   0  0  0  0  0  0  0  0  0  0  0  0
   -0.6125   -1.0792    0.0000 N   0  0  0  0  0  0  0  0  0  0  0  0
   -1.1500   -0.0917    0.0000 O   0  0  0  0  0  0  0  0  0  0  0  0
   -2.3333   -0.7667    0.0000 S   0  0  0  0  0  0  0  0  0  0  0  0
    0.6042   -1.0792    0.0000 C   0  0  0  0  0  0  0  0  0  0  0  0
    1.1875   -0.7667    0.0000 C   0  0  0  0  0  0  0  0  0  0  0  0
   -4.0458   -1.1042    0.0000 C   0  0  0  0  0  0  0  0  0  0  0  0
    2.3667   -0.1042    0.0000 C   0  0  0  0  0  0  0  0  0  0  0  0
   -4.5958   -0.7667    0.0000 C   0  0  0  0  0  0  0  0  0  0  0  0
   -1.7458   -1.1042    0.0000 C   0  0  0  0  0  0  0  0  0  0  0  0
   -5.1833   -1.1042    0.0000 Br  0  0  0  0  0  0  0  0  0  0  0  0
   -3.4625   -0.7667    0.0000 C   0  0  0  0  0  0  0  0  0  0  0  0
    1.7667   -1.1042    0.0000 C   0  0  0  0  0  0  0  0  0  0  0  0
    1.1875   -0.0917    0.0000 C   0  0  0  0  0  0  0  0  0  0  0  0
    2.3667   -0.7792    0.0000 C   0  0  0  0  0  0  0  0  0  0  0  0
    1.7667    0.2458    0.0000 C   0  0  0  0  0  0  0  0  0  0  0  0
    2.9500    0.2125    0.0000 O   0  0  0  0  0  0  0  0  0  0  0  0
   -2.8833   -1.1042    0.0000 C   0  0  0  0  0  0  0  0  0  0  0  0
   -4.0458    0.2458    0.0000 C   0  0  0  0  0  0  0  0  0  0  0  0
   -4.5958   -0.0917    0.0000 C   0  0  0  0  0  0  0  0  0  0  0  0
   -3.4625   -0.0917    0.0000 C   0  0  0  0  0  0  0  0  0  0  0  0
    3.5000   -0.1292    0.0000 C   0  0  0  0  0  0  0  0  0  0  0  0
  2  3  1  0  0  0  0
  3  1  1  0  0  0  0
  4  1  2  0  0  0  0
  5 11  1  0  0  0  0
  6  2  2  0  0  0  0
  7  6  1  0  0  0  0
  8 13  1  0  0  0  0
  9 17  1  0  0  0  0
 10  8  2  0  0  0  0
 10 21  1  0  0  0  0
 11  1  1  0  0  0  0
 12 10  1  0  0  0  0
 13 19  1  0  0  0  0
 14  7  2  0  0  0  0
 15  7  1  0  0  0  0
 16 14  1  0  0  0  0
 16  9  2  0  0  0  0
 17 15  2  0  0  0  0
 18  9  1  0  0  0  0
 19  5  1  0  0  0  0
 20 22  1  0  0  0  0
 21 20  2  0  0  0  0
 22 13  2  0  0  0  0
 23 18  1  0  0  0  0
M  END
>  <ID>
5187349

>  <Supplier>
ChemBridge

>  <clogP>
4.180000000000000e+000

>  <RB>
6

>  <tPSA>
5.069000000000000e+001

>  <Hacc>
3

>  <Hdon>
1

>  <LogSw>
-5.637000000000000e+000

>  <Group>
1

>  <Core>
431

$$$$
5187348
 OpenBabel03312015312D

 29 31  0  0  0  0  0  0  0  0999 V2000
   -1.1500   -0.7500    0.0000 C   0  0  0  0  0  0  0  0  0  0  0  0
    0.0500   -0.7292    0.0000 N   0  0  0  0  0  0  0  0  0  0  0  0
   -0.6125   -1.0792    0.0000 N   0  0  0  0  0  0  0  0  0  0  0  0
   -1.1500   -0.0917    0.0000 O   0  0  0  0  0  0  0  0  0  0  0  0
   -2.3333   -0.7667    0.0000 S   0  0  0  0  0  0  0  0  0  0  0  0
    0.6042   -1.0792    0.0000 C   0  0  0  0  0  0  0  0  0  0  0  0
    2.9500    0.2125    0.0000 O   0  0  0  0  0  0  0  0  0  0  0  0
    2.3667   -0.1042    0.0000 C   0  0  0  0  0  0  0  0  0  0  0  0
    1.1875   -0.7667    0.0000 C   0  0  0  0  0  0  0  0  0  0  0  0
   -4.0458   -1.1042    0.0000 C   0  0  0  0  0  0  0  0  0  0  0  0
   -4.5958   -0.7667    0.0000 C   0  0  0  0  0  0  0  0  0  0  0  0
   -1.7458   -1.1042    0.0000 C   0  0  0  0  0  0  0  0  0  0  0  0
    3.5000   -0.1292    0.0000 C   0  0  0  0  0  0  0  0  0  0  0  0
   -5.1833   -1.1042    0.0000 Br  0  0  0  0  0  0  0  0  0  0  0  0
   -3.4625   -0.7667    0.0000 C   0  0  0  0  0  0  0  0  0  0  0  0
    2.3667   -0.7792    0.0000 C   0  0  0  0  0  0  0  0  0  0  0  0
    1.7667    0.2458    0.0000 C   0  0  0  0  0  0  0  0  0  0  0  0
    1.7667   -1.1042    0.0000 C   0  0  0  0  0  0  0  0  0  0  0  0
    1.1875   -0.0917    0.0000 C   0  0  0  0  0  0  0  0  0  0  0  0
    4.0792    0.1708    0.0000 C   0  0  0  0  0  0  0  0  0  0  0  0
   -2.8833   -1.1042    0.0000 C   0  0  0  0  0  0  0  0  0  0  0  0
   -4.0458    0.2458    0.0000 C   0  0  0  0  0  0  0  0  0  0  0  0
   -4.5958   -0.0917    0.0000 C   0  0  0  0  0  0  0  0  0  0  0  0
   -3.4625   -0.0917    0.0000 C   0  0  0  0  0  0  0  0  0  0  0  0
    4.0792    0.8208    0.0000 C   0  0  0  0  0  0  0  0  0  0  0  0
    4.6542   -0.1542    0.0000 C   0  0  0  0  0  0  0  0  0  0  0  0
    5.2375    0.1625    0.0000 C   0  0  0  0  0  0  0  0  0  0  0  0
    4.6542    1.1625    0.0000 C   0  0  0  0  0  0  0  0  0  0  0  0
    5.2375    0.8333    0.0000 C   0  0  0  0  0  0  0  0  0  0  0  0
  2  3  1  0  0  0  0
  3  1  1  0  0  0  0
  4  1  2  0  0  0  0
  5 12  1  0  0  0  0
  6  2  2  0  0  0  0
  7  8  1  0  0  0  0
  8 17  1  0  0  0  0
  8 16  2  0  0  0  0
  9  6  1  0  0  0  0
 10 15  1  0  0  0  0
 11 10  2  0  0  0  0
 12  1  1  0  0  0  0
 13  7  1  0  0  0  0
 14 11  1  0  0  0  0
 15 21  1  0  0  0  0
 16 18  1  0  0  0  0
 17 19  2  0  0  0  0
 18  9  2  0  0  0  0
 19  9  1  0  0  0  0
 20 13  1  0  0  0  0
 21  5  1  0  0  0  0
 22 24  1  0  0  0  0
 23 22  2  0  0  0  0
 23 11  1  0  0  0  0
 24 15  2  0  0  0  0
 25 20  1  0  0  0  0
 26 20  2  0  0  0  0
 27 26  1  0  0  0  0
 28 25  2  0  0  0  0
 28 29  1  0  0  0  0
 29 27  2  0  0  0  0
M  END
>  <ID>
5187348

>  <Supplier>
ChemBridge

>  <clogP>
5.940000000000000e+000

>  <RB>
9

>  <tPSA>
5.069000000000000e+001

>  <Hacc>
3

>  <Hdon>
1

>  <LogSw>
-7.693999999999998e+000

>  <Group>
2

>  <Core>
431

$$$$
5543242
 OpenBabel03312015312D

 31 35  0  0  0  0  0  0  0  0999 V2000
   -1.8958    0.9125    0.0000 N   0  3  0  0  0  0  0  0  0  0  0  0
   -1.2000    1.2333    0.0000 C   0  0  0  0  0  0  0  0  0  0  0  0
   -3.9125   -0.2792    0.0000 N   0  0  0  0  0  0  0  0  0  0  0  0
   -1.7833    0.1208    0.0000 C   0  0  0  0  0  0  0  0  0  0  0  0
   -3.2458    0.9000    0.0000 C   0  0  0  0  0  0  0  0  0  0  0  0
   -4.5958    0.9000    0.0000 N   0  3  0  0  0  0  0  0  0  0  0  0
   -3.2458    0.1125    0.0000 C   0  0  0  0  0  0  0  0  0  0  0  0
   -1.0125    0.0000    0.0000 S   0  0  0  0  0  0  0  0  0  0  0  0
   -2.5625    1.2958    0.0000 C   0  0  0  0  0  0  0  0  0  0  0  0
    3.1167   -0.5375    0.0000 C   0  0  3  0  0  0  0  0  0  0  0  0
   -0.6625    0.7125    0.0000 C   0  0  0  0  0  0  0  0  0  0  0  0
   -4.5958    0.1125    0.0000 C   0  0  0  0  0  0  0  0  0  0  0  0
   -3.9125    1.2958    0.0000 C   0  0  0  0  0  0  0  0  0  0  0  0
    1.8542   -0.0917    0.0000 C   0  0  0  0  0  0  0  0  0  0  0  0
    4.7000    0.0625    0.0000 C   0  0  3  0  0  0  0  0  0  0  0  0
    3.3542   -1.2542    0.0000 C   0  0  3  0  0  0  0  0  0  0  0  0
    4.4875   -1.3875    0.0000 C   0  0  3  0  0  0  0  0  0  0  0  0
    2.6042    0.0500    0.0000 C   0  0  0  0  0  0  0  0  0  0  0  0
    3.7292   -1.3542    0.0000 C   0  0  0  0  0  0  0  0  0  0  0  0
    2.3167   -1.0292    0.0000 C   0  0  0  0  0  0  0  0  0  0  0  0
    3.8167    0.1125    0.0000 C   0  0  0  0  0  0  0  0  0  0  0  0
    1.6167   -0.8292    0.0000 O   0  0  0  0  0  0  0  0  0  0  0  0
    5.0000   -0.9292    0.0000 C   0  0  0  0  0  0  0  0  0  0  0  0
    3.3542   -1.8542    0.0000 C   0  0  0  0  0  0  0  0  0  0  0  0
    4.3792   -0.8542    0.0000 C   0  0  0  0  0  0  0  0  0  0  0  0
   -2.5625   -0.2792    0.0000 N   0  0  0  0  0  0  0  0  0  0  0  0
    0.0875    0.8708    0.0000 C   0  0  0  0  0  0  0  0  0  0  0  0
    1.3500    0.4625    0.0000 O   0  0  0  0  0  0  0  0  0  0  0  0
    0.6042    0.3000    0.0000 C   0  0  0  0  0  0  0  0  0  0  0  0
   -1.0958    1.9958    0.0000 C   0  0  0  0  0  0  0  0  0  0  0  0
   -5.2708   -0.2792    0.0000 C   0  0  0  0  0  0  0  0  0  0  0  0
  2  1  1  0  0  0  0
  3  7  1  0  0  0  0
  3 12  2  0  0  0  0
  4  1  2  0  0  0  0
  5  9  1  0  0  0  0
  6 13  2  0  0  0  0
  7  5  2  0  0  0  0
  8  4  1  0  0  0  0
  8 11  1  0  0  0  0
  9  1  1  0  0  0  0
 10 18  1  0  0  0  0
 11  2  2  0  0  0  0
 12  6  1  0  0  0  0
 13  5  1  0  0  0  0
 14 28  1  0  0  0  0
 15 21  1  0  0  0  0
 16 20  1  0  0  0  0
 17 19  1  0  0  0  0
 18 14  1  0  0  0  0
 19 10  1  0  0  0  0
 20 10  1  0  0  0  0
 21 10  1  0  0  0  0
 22 14  2  0  0  0  0
 23 15  1  0  0  0  0
 23 17  1  0  0  0  0
 24 16  1  0  0  0  0
 24 17  1  0  0  0  0
 25 15  1  0  0  0  0
 25 16  1  0  0  0  0
 26  7  1  0  0  0  0
 27 11  1  0  0  0  0
 28 29  1  0  0  0  0
 29 27  1  0  0  0  0
 30  2  1  0  0  0  0
 31 12  1  0  0  0  0
M  CHG  2   1   1   6   1
M  END
>  <ID>
5543242

>  <Supplier>
ChemBridge

>  <clogP>
5.130000000000000e+000

>  <RB>
8

>  <tPSA>
8.323000000000000e+001

>  <Hacc>
5

>  <Hdon>
1

>  <LogSw>
-6.800000000000000e+000

>  <Group>
3

$$$$
5636749
 OpenBabel03312015312D

 22 25  0  0  0  0  0  0  0  0999 V2000
    3.5667   -2.7167    0.0000 N   0  0  0  0  0  0  0  0  0  0  0  0
    3.2875   -3.4375    0.0000 C   0  0  0  0  0  0  0  0  0  0  0  0
    2.8000   -2.4042    0.0000 C   0  0  0  0  0  0  0  0  0  0  0  0
    2.1542   -2.7875    0.0000 C   0  0  3  0  0  0  0  0  0  0  0  0
    2.5375   -3.4375    0.0000 C   0  0  3  0  0  0  0  0  0  0  0  0
    1.6500   -1.5292    0.0000 C   0  0  0  0  0  0  0  0  0  0  0  0
    1.5042   -2.3500    0.0000 C   0  0  3  0  0  0  0  0  0  0  0  0
    1.7500   -3.0542    0.0000 C   0  0  3  0  0  0  0  0  0  0  0  0
    0.7167   -2.8292    0.0000 C   0  0  0  0  0  0  0  0  0  0  0  0
    1.0292   -3.4375    0.0000 C   0  0  0  0  0  0  0  0  0  0  0  0
    4.3167   -2.7167    0.0000 C   0  0  0  0  0  0  0  0  0  0  0  0
    1.6500   -0.7792    0.0000 C   0  0  0  0  0  0  0  0  0  0  0  0
    3.8167   -3.9667    0.0000 O   0  0  0  0  0  0  0  0  0  0  0  0
    2.8000   -1.6542    0.0000 O   0  0  0  0  0  0  0  0  0  0  0  0
    4.8500   -2.1875    0.0000 C   0  0  0  0  0  0  0  0  0  0  0  0
    1.1042   -0.2500    0.0000 C   0  0  0  0  0  0  0  0  0  0  0  0
    2.1667   -0.2500    0.0000 C   0  0  0  0  0  0  0  0  0  0  0  0
    5.5000   -2.5542    0.0000 C   0  0  0  0  0  0  0  0  0  0  0  0
    4.8500   -1.4292    0.0000 C   0  0  0  0  0  0  0  0  0  0  0  0
    5.5000   -1.0500    0.0000 C   0  0  0  0  0  0  0  0  0  0  0  0
    6.1500   -2.1792    0.0000 C   0  0  0  0  0  0  0  0  0  0  0  0
    6.1500   -1.4292    0.0000 C   0  0  0  0  0  0  0  0  0  0  0  0
  2  1  1  0  0  0  0
  3  1  1  0  0  0  0
  4  3  1  0  0  0  0
  5  2  1  0  0  0  0
  5  4  1  0  0  0  0
  6  7  1  0  0  0  0
  7  4  1  0  0  0  0
  8  5  1  0  0  0  0
  8  6  1  0  0  0  0
  9  7  1  0  0  0  0
  9 10  2  0  0  0  0
 10  8  1  0  0  0  0
 11  1  1  0  0  0  0
 12  6  2  0  0  0  0
 13  2  2  0  0  0  0
 14  3  2  0  0  0  0
 15 11  1  0  0  0  0
 16 12  1  0  0  0  0
 17 12  1  0  0  0  0
 18 15  1  0  0  0  0
 19 15  2  0  0  0  0
 20 19  1  0  0  0  0
 21 18  2  0  0  0  0
 21 22  1  0  0  0  0
 22 20  2  0  0  0  0
M  END
>  <ID>
5636749

>  <Supplier>
ChemBridge

>  <clogP>
2.480000000000000e+000

>  <RB>
2

>  <tPSA>
3.738000000000000e+001

>  <Hacc>
2

>  <Hdon>
0

>  <LogSw>
-3.458000000000000e+000

>  <Group>
3

>  <Core>
311

$$$$
7949707
 OpenBabel03312015312D

 27 29  0  0  0  0  0  0  0  0999 V2000
    7.4792    1.7000    0.0000 C   0  0  0  0  0  0  0  0  0  0  0  0
    7.1042    1.0500    0.0000 N   0  0  0  0  0  0  0  0  0  0  0  0
    8.2292    1.7000    0.0000 C   0  0  0  0  0  0  0  0  0  0  0  0
    6.3542    1.0500    0.0000 C   0  0  0  0  0  0  0  0  0  0  0  0
    2.9792    0.4083    0.0000 N   0  0  0  0  0  0  0  0  0  0  0  0
    8.6042    1.0500    0.0000 C   0  0  0  0  0  0  0  0  0  0  0  0
    8.6042    2.3500    0.0000 C   0  0  0  0  0  0  0  0  0  0  0  0
    5.9792    0.4083    0.0000 N   0  0  0  0  0  0  0  0  0  0  0  0
    3.7292    0.4083    0.0000 C   0  0  0  0  0  0  0  0  0  0  0  0
    5.9792    1.7000    0.0000 S   0  0  0  0  0  0  0  0  0  0  0  0
    7.1042    2.3500    0.0000 O   0  0  0  0  0  0  0  0  0  0  0  0
    9.3542    1.0500    0.0000 C   0  0  0  0  0  0  0  0  0  0  0  0
    2.6042    1.0500    0.0000 C   0  0  0  0  0  0  0  0  0  0  0  0
    2.6042   -0.2417    0.0000 C   0  0  0  0  0  0  0  0  0  0  0  0
    4.1042    1.0500    0.0000 C   0  0  0  0  0  0  0  0  0  0  0  0
    4.1042   -0.2417    0.0000 C   0  0  0  0  0  0  0  0  0  0  0  0
    5.2292    0.4083    0.0000 C   0  0  0  0  0  0  0  0  0  0  0  0
    8.2292    0.4083    0.0000 Cl  0  0  0  0  0  0  0  0  0  0  0  0
    9.3542    2.3500    0.0000 C   0  0  0  0  0  0  0  0  0  0  0  0
    9.7292    1.7000    0.0000 C   0  0  0  0  0  0  0  0  0  0  0  0
    4.8542   -0.2417    0.0000 C   0  0  0  0  0  0  0  0  0  0  0  0
    4.8542    1.0500    0.0000 C   0  0  0  0  0  0  0  0  0  0  0  0
    1.8542    1.0500    0.0000 C   0  0  0  0  0  0  0  0  0  0  0  0
    1.8542   -0.2417    0.0000 C   0  0  0  0  0  0  0  0  0  0  0  0
    1.4792    0.4083    0.0000 C   0  0  0  0  0  0  0  0  0  0  0  0
   10.4792    1.7000    0.0000 C   0  0  0  0  0  0  0  0  0  0  0  0
    0.7292    0.4083    0.0000 C   0  0  0  0  0  0  0  0  0  0  0  0
  2  1  1  0  0  0  0
  3  1  1  0  0  0  0
  4  2  1  0  0  0  0
  5  9  1  0  0  0  0
  6  3  1  0  0  0  0
  7  3  2  0  0  0  0
  8  4  1  0  0  0  0
  9 15  1  0  0  0  0
  9 16  2  0  0  0  0
 10  4  2  0  0  0  0
 11  1  2  0  0  0  0
 12  6  2  0  0  0  0
 13  5  1  0  0  0  0
 14  5  1  0  0  0  0
 15 22  2  0  0  0  0
 16 21  1  0  0  0  0
 17  8  1  0  0  0  0
 18  6  1  0  0  0  0
 19  7  1  0  0  0  0
 20 19  2  0  0  0  0
 20 12  1  0  0  0  0
 21 17  2  0  0  0  0
 22 17  1  0  0  0  0
 23 13  1  0  0  0  0
 23 25  1  0  0  0  0
 24 14  1  0  0  0  0
 25 24  1  0  0  0  0
 26 20  1  0  0  0  0
 27 25  1  0  0  0  0
M  END
>  <ID>
7949707

>  <Supplier>
ChemBridge

>  <clogP>
5.021000000000000e+000

>  <RB>
3

>  <tPSA>
4.437000000000001e+001

>  <Hacc>
1

>  <Hdon>
2

>  <LogSw>
-6.418000000000000e+000

>  <Group>
1

>  <Core>
071

$$$$
5636744
 OpenBabel03312015312D

 23 24  0  0  0  0  0  0  0  0999 V2000
    0.7792    1.6833    0.0000 C   0  0  0  0  0  0  0  0  0  0  0  0
    1.1500    1.3500    0.0000 N   0  3  0  0  0  0  0  0  0  0  0  0
    0.3875    3.2208    0.0000 N   0  3  0  0  0  0  0  0  0  0  0  0
    0.8875    2.3833    0.0000 C   0  0  0  0  0  0  0  0  0  0  0  0
    0.3375    2.8208    0.0000 C   0  0  0  0  0  0  0  0  0  0  0  0
   -2.6958    0.9000    0.0000 C   0  0  0  0  0  0  0  0  0  0  0  0
   -1.9333    0.8625    0.0000 C   0  0  0  0  0  0  0  0  0  0  0  0
    0.1292    1.4333    0.0000 C   0  0  0  0  0  0  0  0  0  0  0  0
    1.1500    0.8625    0.0000 O   0  5  0  0  0  0  0  0  0  0  0  0
    0.8792    3.4625    0.0000 O   0  5  0  0  0  0  0  0  0  0  0  0
    1.7292    1.5458    0.0000 O   0  0  0  0  0  0  0  0  0  0  0  0
    0.0042    3.5500    0.0000 O   0  0  0  0  0  0  0  0  0  0  0  0
   -0.3125    2.5708    0.0000 C   0  0  0  0  0  0  0  0  0  0  0  0
   -0.4208    1.8625    0.0000 C   0  0  0  0  0  0  0  0  0  0  0  0
   -3.3708    0.9500    0.0000 C   0  0  0  0  0  0  0  0  0  0  0  0
    0.0292    0.7458    0.0000 O   0  0  0  0  0  0  0  0  0  0  0  0
   -1.2208    0.8833    0.0000 C   0  0  0  0  0  0  0  0  0  0  0  0
   -0.8458    0.4125    0.0000 C   0  0  0  0  0  0  0  0  0  0  0  0
   -3.7000    1.5333    0.0000 C   0  0  0  0  0  0  0  0  0  0  0  0
   -3.7458    0.3625    0.0000 C   0  0  0  0  0  0  0  0  0  0  0  0
   -4.4125    0.3958    0.0000 C   0  0  0  0  0  0  0  0  0  0  0  0
   -4.3625    1.5625    0.0000 C   0  0  0  0  0  0  0  0  0  0  0  0
   -4.7333    0.9625    0.0000 C   0  0  0  0  0  0  0  0  0  0  0  0
  2  1  1  0  0  0  0
  3  5  1  0  0  0  0
  4  1  2  0  0  0  0
  5  4  1  0  0  0  0
  6  7  3  0  0  0  0
  7 17  1  0  0  0  0
  8  1  1  0  0  0  0
  9  2  1  0  0  0  0
 10  3  1  0  0  0  0
 11  2  2  0  0  0  0
 12  3  2  0  0  0  0
 13 14  1  0  0  0  0
 13  5  2  0  0  0  0
 14  8  2  0  0  0  0
 15  6  1  0  0  0  0
 16  8  1  0  0  0  0
 17 18  1  0  0  0  0
 18 16  1  0  0  0  0
 19 15  1  0  0  0  0
 20 15  2  0  0  0  0
 21 20  1  0  0  0  0
 22 19  2  0  0  0  0
 22 23  1  0  0  0  0
 23 21  2  0  0  0  0
M  CHG  4   2   1   3   1   9  -1  10  -1
M  END
>  <ID>
5636744

>  <Supplier>
ChemBridge

>  <clogP>
3.900000000000000e+000

>  <RB>
5

>  <tPSA>
9.551000000000002e+001

>  <Hacc>
5

>  <Hdon>
0

>  <LogSw>
-5.198000000000000e+000

>  <Group>
1

$$$$
5311202
 OpenBabel03312015312D

 29 31  0  0  0  0  0  0  0  0999 V2000
   -4.7458   -1.4792    0.0000 N   0  3  0  0  0  0  0  0  0  0  0  0
   -4.7458   -0.6000    0.0000 C   0  0  0  0  0  0  0  0  0  0  0  0
   -3.2208    1.1833    0.0000 C   0  0  0  0  0  0  0  0  0  0  0  0
    1.3542    2.0625    0.0000 C   0  0  0  0  0  0  0  0  0  0  0  0
   -3.9833   -0.1542    0.0000 C   0  0  0  0  0  0  0  0  0  0  0  0
   -3.9833    0.7208    0.0000 C   0  0  0  0  0  0  0  0  0  0  0  0
    0.6000    2.5000    0.0000 N   0  0  0  0  0  0  0  0  0  0  0  0
   -2.4625    0.7458    0.0000 N   0  0  0  0  0  0  0  0  0  0  0  0
    2.1167    2.5000    0.0000 C   0  0  0  0  0  0  0  0  0  0  0  0
   -5.5000   -1.9167    0.0000 O   0  5  0  0  0  0  0  0  0  0  0  0
   -3.9833   -1.9167    0.0000 O   0  0  0  0  0  0  0  0  0  0  0  0
   -5.5000   -0.1542    0.0000 C   0  0  0  0  0  0  0  0  0  0  0  0
   -3.2208    2.0625    0.0000 O   0  0  0  0  0  0  0  0  0  0  0  0
    1.3542    1.1833    0.0000 O   0  0  0  0  0  0  0  0  0  0  0  0
    2.1167    3.3833    0.0000 C   0  0  0  0  0  0  0  0  0  0  0  0
   -4.7458    1.1625    0.0000 C   0  0  0  0  0  0  0  0  0  0  0  0
   -5.5000    0.7208    0.0000 C   0  0  0  0  0  0  0  0  0  0  0  0
   -0.1833    2.0625    0.0000 C   0  0  0  0  0  0  0  0  0  0  0  0
   -1.7000    1.1833    0.0000 C   0  0  0  0  0  0  0  0  0  0  0  0
    2.8792    3.8208    0.0000 C   0  0  0  0  0  0  0  0  0  0  0  0
   -0.9458    2.5000    0.0000 C   0  0  0  0  0  0  0  0  0  0  0  0
   -0.9458    0.7458    0.0000 C   0  0  0  0  0  0  0  0  0  0  0  0
   -0.1833    1.1833    0.0000 C   0  0  0  0  0  0  0  0  0  0  0  0
   -1.7000    2.0625    0.0000 C   0  0  0  0  0  0  0  0  0  0  0  0
    2.8792    2.0625    0.0000 C   0  0  0  0  0  0  0  0  0  0  0  0
    3.6375    2.5000    0.0000 C   0  0  0  0  0  0  0  0  0  0  0  0
   -6.2792   -0.6167    0.0000 C   0  0  0  0  0  0  0  0  0  0  0  0
    3.6375    3.3833    0.0000 C   0  0  0  0  0  0  0  0  0  0  0  0
    2.8792    4.7000    0.0000 C   0  0  0  0  0  0  0  0  0  0  0  0
  2  1  1  0  0  0  0
  3  6  1  0  0  0  0
  4  7  1  0  0  0  0
  5  2  2  0  0  0  0
  6  5  1  0  0  0  0
  6 16  2  0  0  0  0
  7 18  1  0  0  0  0
  8  3  1  0  0  0  0
  9  4  1  0  0  0  0
 10  1  1  0  0  0  0
 11  1  2  0  0  0  0
 12  2  1  0  0  0  0
 13  3  2  0  0  0  0
 14  4  2  0  0  0  0
 15  9  1  0  0  0  0
 16 17  1  0  0  0  0
 17 12  2  0  0  0  0
 18 21  1  0  0  0  0
 19  8  1  0  0  0  0
 20 15  2  0  0  0  0
 20 28  1  0  0  0  0
 21 24  2  0  0  0  0
 22 19  2  0  0  0  0
 23 22  1  0  0  0  0
 23 18  2  0  0  0  0
 24 19  1  0  0  0  0
 25  9  2  0  0  0  0
 26 25  1  0  0  0  0
 27 12  1  0  0  0  0
 28 26  2  0  0  0  0
 29 20  1  0  0  0  0
M  CHG  2   1   1  10  -1
M  END
>  <ID>
5311202

>  <Supplier>
ChemBridge

>  <clogP>
4.250000000000000e+000

>  <RB>
4

>  <tPSA>
1.013400000000000e+002

>  <Hacc>
4

>  <Hdon>
2

>  <LogSw>
-6.058000000000000e+000

>  <Group>
1

>  <Core>
157

$$$$
5187344
 OpenBabel03312015312D

 23 24  0  0  0  0  0  0  0  0999 V2000
   -0.2833   -0.3167    0.0000 C   0  0  0  0  0  0  0  0  0  0  0  0
    1.1792   -0.2875    0.0000 N   0  0  0  0  0  0  0  0  0  0  0  0
    2.5542   -0.3375    0.0000 C   0  0  0  0  0  0  0  0  0  0  0  0
    0.3792   -0.7167    0.0000 N   0  0  0  0  0  0  0  0  0  0  0  0
   -0.2833    0.4708    0.0000 O   0  0  0  0  0  0  0  0  0  0  0  0
    2.5542    0.4708    0.0000 C   0  0  0  0  0  0  0  0  0  0  0  0
    1.8542   -0.7167    0.0000 C   0  0  0  0  0  0  0  0  0  0  0  0
   -1.7125   -0.3375    0.0000 S   0  0  0  0  0  0  0  0  0  0  0  0
   -3.7958   -0.7500    0.0000 C   0  0  0  0  0  0  0  0  0  0  0  0
   -4.4708   -0.3375    0.0000 C   0  0  0  0  0  0  0  0  0  0  0  0
   -1.0000   -0.7500    0.0000 C   0  0  0  0  0  0  0  0  0  0  0  0
   -5.1708   -0.7500    0.0000 Br  0  0  0  0  0  0  0  0  0  0  0  0
   -3.0958   -0.3375    0.0000 C   0  0  0  0  0  0  0  0  0  0  0  0
    1.8542    0.8625    0.0000 O   0  0  0  0  0  0  0  0  0  0  0  0
   -2.3833   -0.7500    0.0000 C   0  0  0  0  0  0  0  0  0  0  0  0
   -3.7958    0.8833    0.0000 C   0  0  0  0  0  0  0  0  0  0  0  0
    3.2667   -0.7500    0.0000 C   0  0  0  0  0  0  0  0  0  0  0  0
    3.2667    0.8833    0.0000 C   0  0  0  0  0  0  0  0  0  0  0  0
   -4.4708    0.4708    0.0000 C   0  0  0  0  0  0  0  0  0  0  0  0
   -3.0958    0.4708    0.0000 C   0  0  0  0  0  0  0  0  0  0  0  0
    1.8542    1.6500    0.0000 C   0  0  0  0  0  0  0  0  0  0  0  0
    4.0000   -0.3542    0.0000 C   0  0  0  0  0  0  0  0  0  0  0  0
    4.0000    0.4625    0.0000 C   0  0  0  0  0  0  0  0  0  0  0  0
  2  4  1  0  0  0  0
  3  7  1  0  0  0  0
  4  1  1  0  0  0  0
  5  1  2  0  0  0  0
  6  3  1  0  0  0  0
  7  2  2  0  0  0  0
  8 11  1  0  0  0  0
  9 13  1  0  0  0  0
 10  9  2  0  0  0  0
 11  1  1  0  0  0  0
 12 10  1  0  0  0  0
 13 15  1  0  0  0  0
 14  6  1  0  0  0  0
 15  8  1  0  0  0  0
 16 20  1  0  0  0  0
 17  3  2  0  0  0  0
 18  6  2  0  0  0  0
 18 23  1  0  0  0  0
 19 16  2  0  0  0  0
 19 10  1  0  0  0  0
 20 13  2  0  0  0  0
 21 14  1  0  0  0  0
 22 17  1  0  0  0  0
 23 22  2  0  0  0  0
M  END
>  <ID>
5187344

>  <Supplier>
ChemBridge

>  <clogP>
4.180000000000000e+000

>  <RB>
6

>  <tPSA>
5.069000000000000e+001

>  <Hacc>
3

>  <Hdon>
1

>  <LogSw>
-5.637000000000000e+000

>  <Group>
1

>  <Core>
431

$$$$
7000813
 OpenBabel03312015312D

 23 26  0  0  0  0  0  0  0  0999 V2000
   -1.5833   -3.1667    0.0000 N   0  0  0  0  0  0  0  0  0  0  0  0
    0.7375   -0.6292    0.0000 C   0  0  0  0  0  0  0  0  0  0  0  0
   -4.6625   -1.7375    0.0000 C   0  0  0  0  0  0  0  0  0  0  0  0
   -0.9500    2.2208    0.0000 N   0  0  0  0  0  0  0  0  0  0  0  0
   -4.3458    1.4333    0.0000 N   0  0  0  0  0  0  0  0  0  0  0  0
    4.0167   -1.4292    0.0000 C   0  0  0  0  0  0  0  0  0  0  0  0
    6.3500    0.9500    0.0000 C   0  0  0  0  0  0  0  0  0  0  0  0
   -1.0500   -6.5042    0.0000 C   0  0  0  0  0  0  0  0  0  0  0  0
    9.5292    0.1500    0.0000 C   0  0  0  0  0  0  0  0  0  0  0  0
   -7.7292   -3.3292    0.0000 S   0  0  0  0  0  0  0  0  0  0  0  0
   11.8542    2.5458    0.0000 C   0  0  0  0  0  0  0  0  0  0  0  0
    5.4000    4.2792    0.0000 C   0  0  0  0  0  0  0  0  0  0  0  0
    7.7292    6.5042    0.0000 C   0  0  0  0  0  0  0  0  0  0  0  0
   10.3792   -3.0167    0.0000 C   0  0  0  0  0  0  0  0  0  0  0  0
   -3.7000   -8.5792    0.0000 C   0  0  0  0  0  0  0  0  0  0  0  0
    2.2167   -7.7792    0.0000 C   0  0  0  0  0  0  0  0  0  0  0  0
   11.0167    5.7167    0.0000 C   0  0  0  0  0  0  0  0  0  0  0  0
   15.0375    1.5833    0.0000 C   0  0  0  0  0  0  0  0  0  0  0  0
   13.6542   -3.9667    0.0000 C   0  0  0  0  0  0  0  0  0  0  0  0
    2.7500  -11.1167    0.0000 C   0  0  0  0  0  0  0  0  0  0  0  0
   -3.1708  -12.0667    0.0000 C   0  0  0  0  0  0  0  0  0  0  0  0
   16.0000   -1.5792    0.0000 C   0  0  0  0  0  0  0  0  0  0  0  0
    0.1000  -13.3500    0.0000 C   0  0  0  0  0  0  0  0  0  0  0  0
  2  1  1  0  0  0  0
  3  1  1  0  0  0  0
  4  2  2  0  0  0  0
  5  3  2  0  0  0  0
  5  4  1  0  0  0  0
  6  2  1  0  0  0  0
  7  6  1  0  0  0  0
  8  1  1  0  0  0  0
  9  7  2  0  0  0  0
 10  3  1  0  0  0  0
 11  9  1  0  0  0  0
 11 17  2  0  0  0  0
 12  7  1  0  0  0  0
 13 12  2  0  0  0  0
 14  9  1  0  0  0  0
 15  8  2  0  0  0  0
 16  8  1  0  0  0  0
 17 13  1  0  0  0  0
 18 11  1  0  0  0  0
 19 14  2  0  0  0  0
 20 16  2  0  0  0  0
 21 15  1  0  0  0  0
 22 19  1  0  0  0  0
 22 18  2  0  0  0  0
 23 20  1  0  0  0  0
 23 21  2  0  0  0  0
M  END
>  <ID>
7000813

>  <Supplier>
ChemBridge

>  <clogP>
4.640000000000000e+000

>  <RB>
3

>  <tPSA>
3.071000000000000e+001

>  <Hacc>
3

>  <Hdon>
0

>  <LogSw>
-5.477000000000000e+000

>  <Group>
3

>  <Core>
029

$$$$
7000810
 OpenBabel03312015312D

 28 30  0  0  0  0  0  0  0  0999 V2000
    1.9042   -1.3125    0.0000 S   0  0  0  0  0  0  0  0  0  0  0  0
    2.6167   -0.8917    0.0000 N   0  0  0  0  0  0  0  0  0  0  0  0
    4.7542    0.3583    0.0000 C   0  0  0  0  0  0  0  0  0  0  0  0
    5.4667   -0.0542    0.0000 N   0  0  0  0  0  0  0  0  0  0  0  0
    6.1792    0.3625    0.0000 C   0  0  0  0  0  0  0  0  0  0  0  0
    1.1917   -1.7292    0.0000 C   0  0  0  0  0  0  0  0  0  0  0  0
    1.4875   -0.5917    0.0000 O   0  0  0  0  0  0  0  0  0  0  0  0
    2.3125   -2.0250    0.0000 O   0  0  0  0  0  0  0  0  0  0  0  0
    4.0375   -0.0625    0.0000 C   0  0  0  0  0  0  0  0  0  0  0  0
    6.8917   -0.0500    0.0000 C   0  0  0  0  0  0  0  0  0  0  0  0
    3.3292   -1.3042    0.0000 C   0  0  0  0  0  0  0  0  0  0  0  0
    2.6042   -0.0667    0.0000 C   0  0  0  0  0  0  0  0  0  0  0  0
    6.1750    1.1833    0.0000 C   0  0  0  0  0  0  0  0  0  0  0  0
    4.7500    1.1833    0.0000 O   0  0  0  0  0  0  0  0  0  0  0  0
    3.3167    0.3458    0.0000 C   0  0  0  0  0  0  0  0  0  0  0  0
    4.0417   -0.8875    0.0000 C   0  0  0  0  0  0  0  0  0  0  0  0
    0.4750   -1.3167    0.0000 C   0  0  0  0  0  0  0  0  0  0  0  0
    1.1917   -2.5542    0.0000 C   0  0  0  0  0  0  0  0  0  0  0  0
    7.6042    0.3708    0.0000 C   0  0  0  0  0  0  0  0  0  0  0  0
    6.8792    1.6083    0.0000 C   0  0  0  0  0  0  0  0  0  0  0  0
   -0.2375   -2.5542    0.0000 C   0  0  0  0  0  0  0  0  0  0  0  0
   -0.2375   -1.7292    0.0000 C   0  0  0  0  0  0  0  0  0  0  0  0
    0.4750   -2.9667    0.0000 C   0  0  0  0  0  0  0  0  0  0  0  0
    7.6042    1.1958    0.0000 C   0  0  0  0  0  0  0  0  0  0  0  0
   -0.9583   -2.9667    0.0000 Cl  0  0  0  0  0  0  0  0  0  0  0  0
    6.9042   -0.8667    0.0000 O   0  0  0  0  0  0  0  0  0  0  0  0
    6.8667    2.4333    0.0000 C   0  0  0  0  0  0  0  0  0  0  0  0
    7.6167   -1.2792    0.0000 C   0  0  0  0  0  0  0  0  0  0  0  0
  2  1  1  0  0  0  0
  3  9  1  0  0  0  0
  4  3  1  0  0  0  0
  5  4  1  0  0  0  0
  6  1  1  0  0  0  0
  7  1  2  0  0  0  0
  8  1  2  0  0  0  0
  9 15  1  0  0  0  0
 10  5  2  0  0  0  0
 11  2  1  0  0  0  0
 12  2  1  0  0  0  0
 13  5  1  0  0  0  0
 14  3  2  0  0  0  0
 15 12  1  0  0  0  0
 16 11  1  0  0  0  0
 16  9  1  0  0  0  0
 17  6  2  0  0  0  0
 18  6  1  0  0  0  0
 19 10  1  0  0  0  0
 20 13  2  0  0  0  0
 21 23  1  0  0  0  0
 22 17  1  0  0  0  0
 22 21  2  0  0  0  0
 23 18  2  0  0  0  0
 24 20  1  0  0  0  0
 24 19  2  0  0  0  0
 25 21  1  0  0  0  0
 26 10  1  0  0  0  0
 27 20  1  0  0  0  0
 28 26  1  0  0  0  0
M  END
>  <ID>
7000810

>  <Supplier>
ChemBridge

>  <clogP>
3.060000000000000e+000

>  <RB>
3

>  <tPSA>
7.570999999999999e+001

>  <Hacc>
5

>  <Hdon>
1

>  <LogSw>
-4.896000000000000e+000

>  <Group>
1

>  <Core>
050

$$$$
7000816
 OpenBabel03312015312D

 23 26  0  0  0  0  0  0  0  0999 V2000
   -0.3500    2.7208    0.0000 C   0  0  3  0  0  0  0  0  0  0  0  0
    3.4667    2.5958    0.0000 N   0  0  0  0  0  0  0  0  0  0  0  0
   -0.3500   -1.0500    0.0000 C   0  0  0  0  0  0  0  0  0  0  0  0
   -3.9125   -2.1500    0.0000 N   0  0  0  0  0  0  0  0  0  0  0  0
   -3.9125    3.8625    0.0000 C   0  0  0  0  0  0  0  0  0  0  0  0
   -2.1500    6.1500    0.0000 N   0  0  0  0  0  0  0  0  0  0  0  0
    5.4500    5.7917    0.0000 C   0  0  0  0  0  0  0  0  0  0  0  0
   -6.1042    0.8333    0.0000 C   0  0  0  0  0  0  0  0  0  0  0  0
    3.6875    9.2667    0.0000 C   0  0  0  0  0  0  0  0  0  0  0  0
   -0.0458    9.3042    0.0000 C   0  0  0  0  0  0  0  0  0  0  0  0
    2.7167   -3.2875    0.0000 O   0  0  0  0  0  0  0  0  0  0  0  0
    9.3542    5.7042    0.0000 O   0  0  0  0  0  0  0  0  0  0  0  0
   -5.0958   -5.8375    0.0000 C   0  0  0  0  0  0  0  0  0  0  0  0
   -2.5000   -8.7375    0.0000 C   0  0  0  0  0  0  0  0  0  0  0  0
   -3.7833  -12.2542    0.0000 C   0  0  0  0  0  0  0  0  0  0  0  0
   -5.6208    7.3375    0.0000 C   0  0  0  0  0  0  0  0  0  0  0  0
    5.7500   12.3792    0.0000 C   0  0  0  0  0  0  0  0  0  0  0  0
   -9.8000    1.0958    0.0000 C   0  0  0  0  0  0  0  0  0  0  0  0
   -1.8000   12.7375    0.0000 C   0  0  0  0  0  0  0  0  0  0  0  0
   -9.4417    7.6375    0.0000 C   0  0  0  0  0  0  0  0  0  0  0  0
    4.0000   15.8167    0.0000 C   0  0  0  0  0  0  0  0  0  0  0  0
  -11.4167    4.4292    0.0000 C   0  0  0  0  0  0  0  0  0  0  0  0
    0.1667   16.0000    0.0000 C   0  0  0  0  0  0  0  0  0  0  0  0
  2  1  1  0  0  0  0
  3  1  1  0  0  0  0
  4  3  1  0  0  0  0
  5  1  1  0  0  0  0
  6  1  1  0  0  0  0
  7  2  1  0  0  0  0
  7  9  1  0  0  0  0
  8  5  2  0  0  0  0
  8  4  1  0  0  0  0
  9 10  2  0  0  0  0
 10  6  1  0  0  0  0
 11  3  2  0  0  0  0
 12  7  2  0  0  0  0
 13  4  1  0  0  0  0
 14 13  1  0  0  0  0
 15 14  2  0  0  0  0
 16  5  1  0  0  0  0
 17  9  1  0  0  0  0
 18  8  1  0  0  0  0
 19 10  1  0  0  0  0
 20 16  2  0  0  0  0
 21 23  1  0  0  0  0
 21 17  2  0  0  0  0
 22 20  1  0  0  0  0
 22 18  2  0  0  0  0
 23 19  2  0  0  0  0
M  END
>  <ID>
7000816

>  <Supplier>
ChemBridge

>  <clogP>
2.660000000000000e+000

>  <RB>
2

>  <tPSA>
6.143999999999998e+001

>  <Hacc>
2

>  <Hdon>
2

>  <LogSw>
-3.699000000000000e+000

>  <Group>
1

>  <Core>
388

$$$$
7000815
 OpenBabel03312015312D

 27 30  0  0  0  0  0  0  0  0999 V2000
    0.9250   -1.3042    0.0000 C   0  0  0  0  0  0  0  0  0  0  0  0
    1.3250   -0.5917    0.0000 C   0  0  0  0  0  0  0  0  0  0  0  0
    2.1542   -0.5750    0.0000 N   0  0  0  0  0  0  0  0  0  0  0  0
    1.3417   -2.0292    0.0000 C   0  0  0  0  0  0  0  0  0  0  0  0
    0.1125   -1.4917    0.0000 C   0  0  0  0  0  0  0  0  0  0  0  0
    2.1750   -2.0167    0.0000 N   0  0  0  0  0  0  0  0  0  0  0  0
    2.5750   -1.2917    0.0000 C   0  0  0  0  0  0  0  0  0  0  0  0
    0.8000   -2.6417    0.0000 S   0  0  0  0  0  0  0  0  0  0  0  0
    0.0375   -2.3250    0.0000 C   0  0  0  0  0  0  0  0  0  0  0  0
    2.5625    0.1458    0.0000 C   0  0  0  0  0  0  0  0  0  0  0  0
    3.3875    0.1500    0.0000 C   0  0  0  0  0  0  0  0  0  0  0  0
   -0.5708   -1.0167    0.0000 C   0  0  0  0  0  0  0  0  0  0  0  0
    5.0500   -1.2667    0.0000 C   0  0  0  0  0  0  0  0  0  0  0  0
    0.9000    0.1208    0.0000 O   0  0  0  0  0  0  0  0  0  0  0  0
    5.7375   -0.8167    0.0000 O   0  0  0  0  0  0  0  0  0  0  0  0
    3.8042   -0.5625    0.0000 N   0  0  0  0  0  0  0  0  0  0  0  0
    5.2667   -2.0625    0.0000 C   0  0  0  0  0  0  0  0  0  0  0  0
    6.3750   -1.3292    0.0000 C   0  0  0  0  0  0  0  0  0  0  0  0
    6.0792   -2.1000    0.0000 C   0  0  0  0  0  0  0  0  0  0  0  0
    3.7917    0.8708    0.0000 O   0  0  0  0  0  0  0  0  0  0  0  0
   -0.4958   -0.1917    0.0000 C   0  0  0  0  0  0  0  0  0  0  0  0
   -1.3125   -1.3667    0.0000 C   0  0  0  0  0  0  0  0  0  0  0  0
    4.6292   -0.5542    0.0000 C   0  0  0  0  0  0  0  0  0  0  0  0
   -1.9250   -0.0667    0.0000 C   0  0  0  0  0  0  0  0  0  0  0  0
   -1.9958   -0.9000    0.0000 C   0  0  0  0  0  0  0  0  0  0  0  0
   -1.1708    0.2833    0.0000 C   0  0  0  0  0  0  0  0  0  0  0  0
   -2.5958    0.4000    0.0000 Cl  0  0  0  0  0  0  0  0  0  0  0  0
  2  1  1  0  0  0  0
  3  2  1  0  0  0  0
  3  7  1  0  0  0  0
  4  1  2  0  0  0  0
  5  1  1  0  0  0  0
  6  4  1  0  0  0  0
  7  6  2  0  0  0  0
  8  4  1  0  0  0  0
  8  9  1  0  0  0  0
  9  5  2  0  0  0  0
 10  3  1  0  0  0  0
 11 10  1  0  0  0  0
 12  5  1  0  0  0  0
 13 23  1  0  0  0  0
 14  2  2  0  0  0  0
 15 13  1  0  0  0  0
 16 11  1  0  0  0  0
 17 13  2  0  0  0  0
 18 15  1  0  0  0  0
 18 19  2  0  0  0  0
 19 17  1  0  0  0  0
 20 11  2  0  0  0  0
 21 12  2  0  0  0  0
 22 12  1  0  0  0  0
 23 16  1  0  0  0  0
 24 25  1  0  0  0  0
 25 22  2  0  0  0  0
 26 21  1  0  0  0  0
 26 24  2  0  0  0  0
 27 24  1  0  0  0  0
M  END
>  <ID>
7000815

>  <Supplier>
ChemBridge

>  <clogP>
3.300000000000000e+000

>  <RB>
5

>  <tPSA>
7.713000000000000e+001

>  <Hacc>
4

>  <Hdon>
1

>  <LogSw>
-4.933000000000002e+000

>  <Group>
3

>  <Core>
062

$$$$
6429020
 OpenBabel03312015312D

 23 25  0  0  0  0  0  0  0  0999 V2000
   -1.3958   -0.7667    0.0000 N   0  3  0  0  0  0  0  0  0  0  0  0
    1.8625    0.3250    0.0000 C   0  0  0  0  0  0  0  0  0  0  0  0
    4.5250    0.3500    0.0000 C   0  0  0  0  0  0  0  0  0  0  0  0
   -0.7458   -0.4042    0.0000 C   0  0  0  0  0  0  0  0  0  0  0  0
    3.8750    0.7333    0.0000 C   0  0  0  0  0  0  0  0  0  0  0  0
   -2.0458   -0.3917    0.0000 O   0  5  0  0  0  0  0  0  0  0  0  0
    2.5792    0.7333    0.0000 N   0  0  0  0  0  0  0  0  0  0  0  0
    4.5167   -0.4000    0.0000 C   0  0  0  0  0  0  0  0  0  0  0  0
   -1.4000   -1.5167    0.0000 O   0  0  0  0  0  0  0  0  0  0  0  0
    3.2167    0.3583    0.0000 C   0  0  0  0  0  0  0  0  0  0  0  0
    5.1750    0.7208    0.0000 O   0  0  0  0  0  0  0  0  0  0  0  0
    5.1625   -0.7792    0.0000 O   0  0  0  0  0  0  0  0  0  0  0  0
    1.8542   -0.5000    0.0000 O   0  0  0  0  0  0  0  0  0  0  0  0
   -0.7375    0.3458    0.0000 C   0  0  0  0  0  0  0  0  0  0  0  0
   -0.0958   -0.7792    0.0000 C   0  0  0  0  0  0  0  0  0  0  0  0
    3.8667   -0.7667    0.0000 C   0  0  0  0  0  0  0  0  0  0  0  0
    1.2125    0.7083    0.0000 C   0  0  0  0  0  0  0  0  0  0  0  0
    0.5625    0.3375    0.0000 C   0  0  0  0  0  0  0  0  0  0  0  0
    3.2167   -0.3917    0.0000 C   0  0  0  0  0  0  0  0  0  0  0  0
   -0.0833    0.7208    0.0000 C   0  0  0  0  0  0  0  0  0  0  0  0
    0.5542   -0.4125    0.0000 C   0  0  0  0  0  0  0  0  0  0  0  0
    5.8250    0.3458    0.0000 C   0  0  0  0  0  0  0  0  0  0  0  0
    5.8167   -0.4042    0.0000 C   0  0  0  0  0  0  0  0  0  0  0  0
  2 17  1  0  0  0  0
  3  5  2  0  0  0  0
  3  8  1  0  0  0  0
  4  1  1  0  0  0  0
  5 10  1  0  0  0  0
  6  1  1  0  0  0  0
  7  2  1  0  0  0  0
  8 16  2  0  0  0  0
  9  1  2  0  0  0  0
 10  7  1  0  0  0  0
 11  3  1  0  0  0  0
 12  8  1  0  0  0  0
 13  2  2  0  0  0  0
 14  4  1  0  0  0  0
 15  4  2  0  0  0  0
 16 19  1  0  0  0  0
 17 18  1  0  0  0  0
 18 21  2  0  0  0  0
 19 10  2  0  0  0  0
 20 14  2  0  0  0  0
 20 18  1  0  0  0  0
 21 15  1  0  0  0  0
 22 11  1  0  0  0  0
 22 23  1  0  0  0  0
 23 12  1  0  0  0  0
M  CHG  2   1   1   6  -1
M  END
>  <ID>
6429020

>  <Supplier>
ChemBridge

>  <clogP>
2.450000000000000e+000

>  <RB>
3

>  <tPSA>
9.070000000000000e+001

>  <Hacc>
5

>  <Hdon>
1

>  <LogSw>
-3.974000000000000e+000

>  <Group>
3

>  <Core>
513

$$$$
7265618
 OpenBabel03312015312D

 19 21  0  0  0  0  0  0  0  0999 V2000
   -1.0958    3.1708    0.0000 C   0  0  3  0  0  0  0  0  0  0  0  0
   -2.6833    5.7917    0.0000 C   0  0  0  0  0  0  0  0  0  0  0  0
    1.9875    3.1708    0.0000 C   0  0  3  0  0  0  0  0  0  0  0  0
   -7.6500    8.4375    0.0000 C   0  0  0  0  0  0  0  0  0  0  0  0
   -5.7958    5.7917    0.0000 N   0  0  0  0  0  0  0  0  0  0  0  0
   -2.6000    0.5208    0.0000 C   0  0  3  0  0  0  0  0  0  0  0  0
    3.5292    0.6000    0.0000 C   0  0  3  0  0  0  0  0  0  0  0  0
    0.4792   -0.4792    0.0000 O   0  0  0  0  0  0  0  0  0  0  0  0
   -6.5875   11.2500    0.0000 N   0  0  0  0  0  0  0  0  0  0  0  0
  -10.7375    8.4375    0.0000 S   0  0  0  0  0  0  0  0  0  0  0  0
    3.6042    5.8417    0.0000 C   0  0  0  0  0  0  0  0  0  0  0  0
    1.9875   -2.1042    0.0000 C   0  0  0  0  0  0  0  0  0  0  0  0
   -1.0500   -2.1875    0.0000 C   0  0  0  0  0  0  0  0  0  0  0  0
   -9.1167   13.1042    0.0000 C   0  0  0  0  0  0  0  0  0  0  0  0
  -11.6875   11.3542    0.0000 C   0  0  0  0  0  0  0  0  0  0  0  0
   -1.1708    8.5292    0.0000 O   0  0  0  0  0  0  0  0  0  0  0  0
    2.1042    8.6875    0.0000 O   0  0  0  0  0  0  0  0  0  0  0  0
    6.6542    5.5167    0.0000 O   0  0  0  0  0  0  0  0  0  0  0  0
   -9.1542   16.0000    0.0000 C   0  0  0  0  0  0  0  0  0  0  0  0
  2  1  1  0  0  0  0
  3  1  1  0  0  0  0
  4  5  1  0  0  0  0
  5  2  1  0  0  0  0
  6  1  1  0  0  0  0
  7  3  1  0  0  0  0
  7  8  1  0  0  0  0
  8  6  1  0  0  0  0
  9  4  2  0  0  0  0
 10  4  1  0  0  0  0
 11  3  1  0  0  0  0
 12 13  2  0  0  0  0
 12  7  1  0  0  0  0
 13  6  1  0  0  0  0
 14  9  1  0  0  0  0
 15 10  1  0  0  0  0
 15 14  2  0  0  0  0
 16  2  2  0  0  0  0
 17 11  2  0  0  0  0
 18 11  1  0  0  0  0
 19 14  1  0  0  0  0
M  END
>  <ID>
7265618

>  <Supplier>
ChemBridge

>  <clogP>
6.800000000000001e-001

>  <RB>
3

>  <tPSA>
8.852000000000004e+001

>  <Hacc>
5

>  <Hdon>
2

>  <LogSw>
-1.825000000000000e+000

>  <Group>
3

>  <Core>
227

$$$$
7978334
 OpenBabel03312015312D

 32 35  0  0  0  0  0  0  0  0999 V2000
    6.5750    0.8875    0.0000 N   0  0  0  0  0  0  0  0  0  0  0  0
    2.6417    0.9583    0.0000 C   0  0  0  0  0  0  0  0  0  0  0  0
    5.8917    0.5833    0.0000 C   0  0  0  0  0  0  0  0  0  0  0  0
    5.9667   -0.1542    0.0000 N   0  0  0  0  0  0  0  0  0  0  0  0
    2.5667    1.7083    0.0000 N   0  0  0  0  0  0  0  0  0  0  0  0
    6.7042   -0.3167    0.0000 N   0  0  0  0  0  0  0  0  0  0  0  0
    7.0792    0.3333    0.0000 C   0  0  0  0  0  0  0  0  0  0  0  0
    1.9542    0.6500    0.0000 S   0  0  0  0  0  0  0  0  0  0  0  0
    3.2917    0.5833    0.0000 N   0  0  0  0  0  0  0  0  0  0  0  0
    1.8292    1.8583    0.0000 C   0  0  0  0  0  0  0  0  0  0  0  0
    1.4542    1.2083    0.0000 C   0  0  0  0  0  0  0  0  0  0  0  0
    9.4500   -0.7250    0.0000 C   0  0  0  0  0  0  0  0  0  0  0  0
    5.2417    0.9583    0.0000 S   0  0  0  0  0  0  0  0  0  0  0  0
    3.9417    0.9583    0.0000 C   0  0  0  0  0  0  0  0  0  0  0  0
   10.1917   -0.6500    0.0000 C   0  0  0  0  0  0  0  0  0  0  0  0
    7.8250    0.4083    0.0000 C   0  0  0  0  0  0  0  0  0  0  0  0
    9.1417   -1.4125    0.0000 O   0  0  0  0  0  0  0  0  0  0  0  0
    3.9417    1.7083    0.0000 O   0  0  0  0  0  0  0  0  0  0  0  0
    9.0125   -0.1167    0.0000 N   0  0  0  0  0  0  0  0  0  0  0  0
    4.5917    0.5833    0.0000 C   0  0  0  0  0  0  0  0  0  0  0  0
   10.6375   -1.2542    0.0000 C   0  0  0  0  0  0  0  0  0  0  0  0
   10.5042    0.0375    0.0000 C   0  0  0  0  0  0  0  0  0  0  0  0
    6.7292    1.6208    0.0000 C   0  0  0  0  0  0  0  0  0  0  0  0
    8.2667   -0.2000    0.0000 C   0  0  0  0  0  0  0  0  0  0  0  0
   11.6917   -0.4917    0.0000 C   0  0  0  0  0  0  0  0  0  0  0  0
   11.3792   -1.1750    0.0000 C   0  0  0  0  0  0  0  0  0  0  0  0
   11.2500    0.1208    0.0000 C   0  0  0  0  0  0  0  0  0  0  0  0
   12.4375   -0.4125    0.0000 F   0  0  0  0  0  0  0  0  0  0  0  0
    1.4542    2.5083    0.0000 C   0  0  0  0  0  0  0  0  0  0  0  0
    0.7042    1.2083    0.0000 C   0  0  0  0  0  0  0  0  0  0  0  0
    0.7042    2.5083    0.0000 C   0  0  0  0  0  0  0  0  0  0  0  0
    0.3292    1.8583    0.0000 C   0  0  0  0  0  0  0  0  0  0  0  0
  2  9  1  0  0  0  0
  3  1  1  0  0  0  0
  4  3  2  0  0  0  0
  5  2  2  0  0  0  0
  6  7  2  0  0  0  0
  6  4  1  0  0  0  0
  7  1  1  0  0  0  0
  8  2  1  0  0  0  0
  9 14  1  0  0  0  0
 10  5  1  0  0  0  0
 11  8  1  0  0  0  0
 11 10  2  0  0  0  0
 12 19  1  0  0  0  0
 13  3  1  0  0  0  0
 14 20  1  0  0  0  0
 15 12  1  0  0  0  0
 16  7  1  0  0  0  0
 17 12  2  0  0  0  0
 18 14  2  0  0  0  0
 19 24  1  0  0  0  0
 20 13  1  0  0  0  0
 21 15  2  0  0  0  0
 22 15  1  0  0  0  0
 23  1  1  0  0  0  0
 24 16  1  0  0  0  0
 25 27  1  0  0  0  0
 25 26  2  0  0  0  0
 26 21  1  0  0  0  0
 27 22  2  0  0  0  0
 28 25  1  0  0  0  0
 29 10  1  0  0  0  0
 30 11  1  0  0  0  0
 31 29  2  0  0  0  0
 31 32  1  0  0  0  0
 32 30  2  0  0  0  0
M  END
>  <ID>
7978334

>  <Supplier>
ChemBridge

>  <clogP>
2.128000000000000e+000

>  <RB>
8

>  <tPSA>
1.018000000000000e+002

>  <Hacc>
5

>  <Hdon>
2

>  <LogSw>
-4.447000000000000e+000

>  <Group>
1

>  <Core>
550

$$$$
7711158
 OpenBabel03312015312D

 16 17  0  0  0  0  0  0  0  0999 V2000
    2.7042    3.1208    0.0000 N   0  0  0  0  0  0  0  0  0  0  0  0
    3.7292    1.9458    0.0000 N   0  0  0  0  0  0  0  0  0  0  0  0
    2.8667    1.5958    0.0000 N   0  0  0  0  0  0  0  0  0  0  0  0
   -0.9500    2.7125    0.0000 N   0  0  0  0  0  0  0  0  0  0  0  0
    3.6292    2.9208    0.0000 C   0  0  0  0  0  0  0  0  0  0  0  0
    2.2292    2.2708    0.0000 C   0  0  0  0  0  0  0  0  0  0  0  0
   -0.9625    1.7708    0.0000 C   0  0  0  0  0  0  0  0  0  0  0  0
   -0.9708    0.8208    0.0000 C   0  0  0  0  0  0  0  0  0  0  0  0
   -0.1708    0.3500    0.0000 C   0  0  0  0  0  0  0  0  0  0  0  0
    2.6667    0.6625    0.0000 C   0  0  0  0  0  0  0  0  0  0  0  0
    0.7875    0.7208    0.0000 O   0  0  0  0  0  0  0  0  0  0  0  0
    1.6167    0.3333    0.0000 C   0  0  0  0  0  0  0  0  0  0  0  0
   -1.7833    0.3500    0.0000 C   0  0  0  0  0  0  0  0  0  0  0  0
   -0.1708   -0.5875    0.0000 C   0  0  0  0  0  0  0  0  0  0  0  0
   -1.7833   -0.5875    0.0000 C   0  0  0  0  0  0  0  0  0  0  0  0
   -0.9708   -1.0667    0.0000 C   0  0  0  0  0  0  0  0  0  0  0  0
  2  5  2  0  0  0  0
  3  6  1  0  0  0  0
  3  2  1  0  0  0  0
  4  7  3  0  0  0  0
  5  1  1  0  0  0  0
  6  1  2  0  0  0  0
  7  8  1  0  0  0  0
  8  9  1  0  0  0  0
  9 11  1  0  0  0  0
 10  3  1  0  0  0  0
 11 12  1  0  0  0  0
 12 10  1  0  0  0  0
 13  8  2  0  0  0  0
 14  9  2  0  0  0  0
 15 16  2  0  0  0  0
 15 13  1  0  0  0  0
 16 14  1  0  0  0  0
M  END
>  <ID>
7711158

>  <Supplier>
ChemBridge

>  <clogP>
1.397000000000000e+000

>  <RB>
4

>  <tPSA>
6.373000000000000e+001

>  <Hacc>
5

>  <Hdon>
0

>  <LogSw>
-1.938000000000000e+000

>  <Group>
3

>  <Core>
318

$$$$
6496005
 OpenBabel03312015312D

 24 26  0  0  0  0  0  0  0  0999 V2000
   -1.1208   -1.3500    0.0000 C   0  0  0  0  0  0  0  0  0  0  0  0
   -1.4958   -2.0292    0.0000 N   0  3  0  0  0  0  0  0  0  0  0  0
   -1.5208   -0.6375    0.0000 C   0  0  0  0  0  0  0  0  0  0  0  0
    0.8500   -0.6292    0.0000 C   0  0  0  0  0  0  0  0  0  0  0  0
   -0.3333   -1.3500    0.0000 C   0  0  0  0  0  0  0  0  0  0  0  0
    1.2292    0.0458    0.0000 C   0  0  0  0  0  0  0  0  0  0  0  0
    0.0667   -0.6375    0.0000 C   0  0  0  0  0  0  0  0  0  0  0  0
   -2.3125   -0.6042    0.0000 N   0  0  0  0  0  0  0  0  0  0  0  0
    2.0292    0.0708    0.0000 C   0  0  0  0  0  0  0  0  0  0  0  0
   -1.1458    0.0458    0.0000 C   0  0  0  0  0  0  0  0  0  0  0  0
   -2.2625   -2.0375    0.0000 O   0  5  0  0  0  0  0  0  0  0  0  0
    0.8167    0.6833    0.0000 C   0  0  0  0  0  0  0  0  0  0  0  0
   -1.0958   -2.6792    0.0000 O   0  0  0  0  0  0  0  0  0  0  0  0
   -0.3333    0.0500    0.0000 C   0  0  0  0  0  0  0  0  0  0  0  0
    1.2500   -1.2875    0.0000 O   0  0  0  0  0  0  0  0  0  0  0  0
    2.3792    0.7708    0.0000 C   0  0  0  0  0  0  0  0  0  0  0  0
    1.1792    1.3958    0.0000 C   0  0  0  0  0  0  0  0  0  0  0  0
    1.9500    1.4333    0.0000 C   0  0  0  0  0  0  0  0  0  0  0  0
   -2.7958   -1.2167    0.0000 C   0  0  0  0  0  0  0  0  0  0  0  0
   -2.7208    0.0458    0.0000 C   0  0  0  0  0  0  0  0  0  0  0  0
    2.4542   -0.5792    0.0000 C   0  0  0  0  0  0  0  0  0  0  0  0
    2.2875    2.1333    0.0000 C   0  0  0  0  0  0  0  0  0  0  0  0
   -3.5000   -0.1500    0.0000 C   0  0  0  0  0  0  0  0  0  0  0  0
   -3.5458   -0.9292    0.0000 C   0  0  0  0  0  0  0  0  0  0  0  0
  2  1  1  0  0  0  0
  3  1  2  0  0  0  0
  4  7  1  0  0  0  0
  5  1  1  0  0  0  0
  6  4  1  0  0  0  0
  7  5  2  0  0  0  0
  8  3  1  0  0  0  0
  9  6  2  0  0  0  0
 10  3  1  0  0  0  0
 10 14  2  0  0  0  0
 11  2  1  0  0  0  0
 12  6  1  0  0  0  0
 13  2  2  0  0  0  0
 14  7  1  0  0  0  0
 15  4  2  0  0  0  0
 16  9  1  0  0  0  0
 17 12  2  0  0  0  0
 18 17  1  0  0  0  0
 18 16  2  0  0  0  0
 19  8  1  0  0  0  0
 20  8  1  0  0  0  0
 21  9  1  0  0  0  0
 22 18  1  0  0  0  0
 23 20  1  0  0  0  0
 24 19  1  0  0  0  0
 24 23  1  0  0  0  0
M  CHG  2   2   1  11  -1
M  END
>  <ID>
6496005

>  <Supplier>
ChemBridge

>  <clogP>
5.020000000000000e+000

>  <RB>
3

>  <tPSA>
6.345000000000000e+001

>  <Hacc>
3

>  <Hdon>
0

>  <LogSw>
-6.243000000000000e+000

>  <Group>
1

$$$$
9019513
 OpenBabel03312015312D

 30 34  0  0  0  0  0  0  0  0999 V2000
    6.0417    1.2625    0.0000 C   0  0  0  0  0  0  0  0  0  0  0  0
    6.4167    1.9125    0.0000 C   0  0  0  0  0  0  0  0  0  0  0  0
    7.1500    1.7583    0.0000 C   0  0  0  0  0  0  0  0  0  0  0  0
    6.5417    0.7083    0.0000 S   0  0  0  0  0  0  0  0  0  0  0  0
    7.2250    1.0125    0.0000 C   0  0  0  0  0  0  0  0  0  0  0  0
    5.2917    1.2625    0.0000 C   0  0  0  0  0  0  0  0  0  0  0  0
    4.9167    1.9125    0.0000 N   0  0  0  0  0  0  0  0  0  0  0  0
    6.0417    2.5625    0.0000 N   0  0  0  0  0  0  0  0  0  0  0  0
    7.9125    0.7083    0.0000 N   0  0  0  0  0  0  0  0  0  0  0  0
    5.2917    2.5625    0.0000 C   0  0  0  0  0  0  0  0  0  0  0  0
    8.5167    1.1458    0.0000 C   0  0  0  0  0  0  0  0  0  0  0  0
    7.7542    2.1958    0.0000 C   0  0  0  0  0  0  0  0  0  0  0  0
    8.4417    1.8958    0.0000 C   0  0  0  0  0  0  0  0  0  0  0  0
    4.1667    1.9125    0.0000 C   0  0  0  0  0  0  0  0  0  0  0  0
    9.2042    0.8458    0.0000 C   0  0  0  0  0  0  0  0  0  0  0  0
    9.7292    2.0333    0.0000 O   0  0  0  0  0  0  0  0  0  0  0  0
    3.7917    2.5625    0.0000 C   0  0  0  0  0  0  0  0  0  0  0  0
    9.8125    1.2833    0.0000 C   0  0  0  0  0  0  0  0  0  0  0  0
    1.9167    3.2125    0.0000 C   0  0  0  0  0  0  0  0  0  0  0  0
    4.9167    0.6125    0.0000 O   0  0  0  0  0  0  0  0  0  0  0  0
    1.4750    3.8208    0.0000 O   0  0  0  0  0  0  0  0  0  0  0  0
    9.0417    2.3333    0.0000 C   0  0  0  0  0  0  0  0  0  0  0  0
    3.0417    2.5625    0.0000 N   0  0  0  0  0  0  0  0  0  0  0  0
    1.4750    2.6083    0.0000 C   0  0  0  0  0  0  0  0  0  0  0  0
    0.7625    3.5875    0.0000 C   0  0  0  0  0  0  0  0  0  0  0  0
    0.7625    2.8375    0.0000 C   0  0  0  0  0  0  0  0  0  0  0  0
    4.1667    3.2125    0.0000 O   0  0  0  0  0  0  0  0  0  0  0  0
    2.6667    3.2125    0.0000 C   0  0  0  0  0  0  0  0  0  0  0  0
   10.1375    0.6083    0.0000 C   0  0  0  0  0  0  0  0  0  0  0  0
   10.5292    1.4875    0.0000 C   0  0  0  0  0  0  0  0  0  0  0  0
  2  1  2  0  0  0  0
  3  2  1  0  0  0  0
  3  5  1  0  0  0  0
  4  1  1  0  0  0  0
  5  4  1  0  0  0  0
  6  1  1  0  0  0  0
  7  6  1  0  0  0  0
  8  2  1  0  0  0  0
  9  5  2  0  0  0  0
 10  7  1  0  0  0  0
 10  8  2  0  0  0  0
 11  9  1  0  0  0  0
 12  3  2  0  0  0  0
 13 12  1  0  0  0  0
 13 11  2  0  0  0  0
 14  7  1  0  0  0  0
 15 11  1  0  0  0  0
 16 22  1  0  0  0  0
 16 18  1  0  0  0  0
 17 14  1  0  0  0  0
 18 15  1  0  0  0  0
 19 28  1  0  0  0  0
 20  6  2  0  0  0  0
 21 19  1  0  0  0  0
 22 13  1  0  0  0  0
 23 17  1  0  0  0  0
 24 19  2  0  0  0  0
 25 21  1  0  0  0  0
 26 24  1  0  0  0  0
 26 25  2  0  0  0  0
 27 17  2  0  0  0  0
 28 23  1  0  0  0  0
 29 18  1  0  0  0  0
 30 18  1  0  0  0  0
M  END
>  <ID>
9019513

>  <Supplier>
ChemBridge

>  <clogP>
1.243000000000000e+000

>  <RB>
4

>  <tPSA>
9.925000000000000e+001

>  <Hacc>
6

>  <Hdon>
1

>  <LogSw>
-3.355999999999999e+000

>  <Group>
2

$$$$
5865837
 OpenBabel03312015312D

 26 29  0  0  0  0  0  0  0  0999 V2000
    0.3792    0.1833    0.0000 C   0  0  0  0  0  0  0  0  0  0  0  0
    1.0500    0.4000    0.0000 N   0  0  0  0  0  0  0  0  0  0  0  0
    0.3792    1.3000    0.0000 N   0  0  0  0  0  0  0  0  0  0  0  0
   -0.0125    0.7625    0.0000 C   0  0  0  0  0  0  0  0  0  0  0  0
    1.0500    1.1000    0.0000 C   0  0  0  0  0  0  0  0  0  0  0  0
    0.1500   -0.4667    0.0000 N   0  0  0  0  0  0  0  0  0  0  0  0
   -0.4208   -0.8500    0.0000 C   0  0  0  0  0  0  0  0  0  0  0  0
    1.6500    0.0458    0.0000 C   0  0  0  0  0  0  0  0  0  0  0  0
    1.6500    1.4458    0.0000 C   0  0  0  0  0  0  0  0  0  0  0  0
    2.2500    0.3833    0.0000 C   0  0  0  0  0  0  0  0  0  0  0  0
    2.2500    1.1000    0.0000 C   0  0  0  0  0  0  0  0  0  0  0  0
   -0.3958   -1.5500    0.0000 C   0  0  0  0  0  0  0  0  0  0  0  0
   -0.7125    0.7000    0.0000 C   0  0  0  0  0  0  0  0  0  0  0  0
   -1.0333   -0.5500    0.0000 O   0  0  0  0  0  0  0  0  0  0  0  0
   -0.9708   -1.9500    0.0000 C   0  0  0  0  0  0  0  0  0  0  0  0
    0.2000   -1.8667    0.0000 C   0  0  0  0  0  0  0  0  0  0  0  0
    2.8042    0.0208    0.0000 Cl  0  0  0  0  0  0  0  0  0  0  0  0
   -0.3458   -2.9500    0.0000 C   0  0  0  0  0  0  0  0  0  0  0  0
   -0.9458   -2.6042    0.0000 C   0  0  0  0  0  0  0  0  0  0  0  0
    0.2500   -2.5667    0.0000 C   0  0  0  0  0  0  0  0  0  0  0  0
   -0.3125   -3.6667    0.0000 F   0  0  0  0  0  0  0  0  0  0  0  0
   -1.1125    1.2833    0.0000 C   0  0  0  0  0  0  0  0  0  0  0  0
   -1.0333    0.0833    0.0000 C   0  0  0  0  0  0  0  0  0  0  0  0
   -1.7125    0.0458    0.0000 C   0  0  0  0  0  0  0  0  0  0  0  0
   -1.8125    1.2208    0.0000 C   0  0  0  0  0  0  0  0  0  0  0  0
   -2.1125    0.6208    0.0000 C   0  0  0  0  0  0  0  0  0  0  0  0
  2  1  1  0  0  0  0
  3  4  1  0  0  0  0
  4  1  2  0  0  0  0
  5  2  1  0  0  0  0
  5  3  2  0  0  0  0
  6  1  1  0  0  0  0
  7  6  1  0  0  0  0
  8  2  1  0  0  0  0
  9  5  1  0  0  0  0
 10  8  2  0  0  0  0
 11 10  1  0  0  0  0
 11  9  2  0  0  0  0
 12  7  1  0  0  0  0
 13  4  1  0  0  0  0
 14  7  2  0  0  0  0
 15 12  2  0  0  0  0
 16 12  1  0  0  0  0
 17 10  1  0  0  0  0
 18 20  1  0  0  0  0
 19 15  1  0  0  0  0
 19 18  2  0  0  0  0
 20 16  2  0  0  0  0
 21 18  1  0  0  0  0
 22 13  2  0  0  0  0
 23 13  1  0  0  0  0
 24 23  2  0  0  0  0
 25 22  1  0  0  0  0
 26 24  1  0  0  0  0
 26 25  2  0  0  0  0
M  END
>  <ID>
5865837

>  <Supplier>
ChemBridge

>  <clogP>
4.460000000000000e+000

>  <RB>
3

>  <tPSA>
4.640000000000000e+001

>  <Hacc>
3

>  <Hdon>
1

>  <LogSw>
-5.676000000000000e+000

>  <Group>
3

>  <Core>
473

$$$$
5865835
 OpenBabel03312015312D

 30 33  0  0  0  0  0  0  0  0999 V2000
    1.5167   -3.9375    0.0000 C   0  0  0  0  0  0  0  0  0  0  0  0
    4.3667   -0.5875    0.0000 C   0  0  0  0  0  0  0  0  0  0  0  0
    3.7000   -0.2000    0.0000 C   0  0  0  0  0  0  0  0  0  0  0  0
    2.2375   -2.7000    0.0000 N   0  0  0  0  0  0  0  0  0  0  0  0
    0.8500   -4.3167    0.0000 C   0  0  0  0  0  0  0  0  0  0  0  0
    3.6500   -1.8292    0.0000 N   0  0  0  0  0  0  0  0  0  0  0  0
    3.6875    0.5708    0.0000 C   0  0  0  0  0  0  0  0  0  0  0  0
    1.5167   -3.1042    0.0000 C   0  0  0  0  0  0  0  0  0  0  0  0
    4.3667   -1.4167    0.0000 C   0  0  0  0  0  0  0  0  0  0  0  0
    4.3667    0.9500    0.0000 C   0  0  0  0  0  0  0  0  0  0  0  0
    5.0167   -0.1875    0.0000 C   0  0  0  0  0  0  0  0  0  0  0  0
    0.8500   -5.1000    0.0000 C   0  0  0  0  0  0  0  0  0  0  0  0
    5.0375    0.5625    0.0000 C   0  0  0  0  0  0  0  0  0  0  0  0
    3.6667   -2.6500    0.0000 C   0  0  0  0  0  0  0  0  0  0  0  0
    2.9167   -1.4375    0.0000 C   0  0  0  0  0  0  0  0  0  0  0  0
    2.9667   -3.0875    0.0000 C   0  0  0  0  0  0  0  0  0  0  0  0
    2.2042   -1.8667    0.0000 C   0  0  0  0  0  0  0  0  0  0  0  0
    0.2000   -3.9375    0.0000 O   0  0  0  0  0  0  0  0  0  0  0  0
    2.1917   -4.3167    0.0000 C   0  0  0  0  0  0  0  0  0  0  0  0
    4.3542    1.7208    0.0000 O   0  0  0  0  0  0  0  0  0  0  0  0
    0.2000   -5.4875    0.0000 O   0  0  0  0  0  0  0  0  0  0  0  0
    3.0167   -0.6000    0.0000 C   0  0  0  0  0  0  0  0  0  0  0  0
    3.0042    0.9625    0.0000 C   0  0  0  0  0  0  0  0  0  0  0  0
    2.1917   -5.1000    0.0000 C   0  0  0  0  0  0  0  0  0  0  0  0
    1.5167   -5.4792    0.0000 C   0  0  0  0  0  0  0  0  0  0  0  0
    0.2000   -3.1875    0.0000 C   0  0  0  0  0  0  0  0  0  0  0  0
   -0.4708   -5.1000    0.0000 C   0  0  0  0  0  0  0  0  0  0  0  0
    5.0042    2.1208    0.0000 C   0  0  0  0  0  0  0  0  0  0  0  0
    2.3500   -0.2042    0.0000 C   0  0  0  0  0  0  0  0  0  0  0  0
    2.3500    0.5708    0.0000 C   0  0  0  0  0  0  0  0  0  0  0  0
  2  9  1  0  0  0  0
  3  2  2  0  0  0  0
  4  8  1  0  0  0  0
  5  1  1  0  0  0  0
  6 15  1  0  0  0  0
  7  3  1  0  0  0  0
  7 10  2  0  0  0  0
  8  1  1  0  0  0  0
  9  6  1  0  0  0  0
 10 13  1  0  0  0  0
 11  2  1  0  0  0  0
 12  5  2  0  0  0  0
 13 11  2  0  0  0  0
 14 16  1  0  0  0  0
 14  6  1  0  0  0  0
 15 17  1  0  0  0  0
 16  4  1  0  0  0  0
 17  4  1  0  0  0  0
 18  5  1  0  0  0  0
 19  1  2  0  0  0  0
 20 10  1  0  0  0  0
 21 12  1  0  0  0  0
 22  3  1  0  0  0  0
 23  7  1  0  0  0  0
 23 30  2  0  0  0  0
 24 19  1  0  0  0  0
 25 24  2  0  0  0  0
 25 12  1  0  0  0  0
 26 18  1  0  0  0  0
 27 21  1  0  0  0  0
 28 20  1  0  0  0  0
 29 22  2  0  0  0  0
 30 29  1  0  0  0  0
M  END
>  <ID>
5865835

>  <Supplier>
ChemBridge

>  <clogP>
4.920000000000000e+000

>  <RB>
4

>  <tPSA>
3.417000000000000e+001

>  <Hacc>
5

>  <Hdon>
0

>  <LogSw>
-5.356999999999998e+000

>  <Group>
2

>  <Core>
164

$$$$
5865838
 OpenBabel03312015312D

 27 29  0  0  0  0  0  0  0  0999 V2000
    4.3667   -0.5875    0.0000 C   0  0  0  0  0  0  0  0  0  0  0  0
    5.0292    0.5500    0.0000 C   0  0  0  0  0  0  0  0  0  0  0  0
    5.0500   -0.2042    0.0000 C   0  0  0  0  0  0  0  0  0  0  0  0
    3.6500   -1.8292    0.0000 N   0  0  0  0  0  0  0  0  0  0  0  0
    2.2375   -2.7000    0.0000 N   0  0  0  0  0  0  0  0  0  0  0  0
    1.5167   -3.9375    0.0000 C   0  0  0  0  0  0  0  0  0  0  0  0
    3.7042   -0.2042    0.0000 C   0  0  0  0  0  0  0  0  0  0  0  0
    4.3667    0.9208    0.0000 C   0  0  0  0  0  0  0  0  0  0  0  0
    3.7042    0.5625    0.0000 C   0  0  0  0  0  0  0  0  0  0  0  0
    4.3667   -1.4167    0.0000 C   0  0  0  0  0  0  0  0  0  0  0  0
    1.5167   -3.1042    0.0000 C   0  0  0  0  0  0  0  0  0  0  0  0
    0.8500   -4.3167    0.0000 C   0  0  0  0  0  0  0  0  0  0  0  0
    3.6667   -2.6500    0.0000 C   0  0  0  0  0  0  0  0  0  0  0  0
    2.9167   -1.4375    0.0000 C   0  0  0  0  0  0  0  0  0  0  0  0
    2.9667   -3.0875    0.0000 C   0  0  0  0  0  0  0  0  0  0  0  0
    2.2042   -1.8667    0.0000 C   0  0  0  0  0  0  0  0  0  0  0  0
    0.2000   -3.9375    0.0000 Cl  0  0  0  0  0  0  0  0  0  0  0  0
    5.7292   -0.5792    0.0000 O   0  0  0  0  0  0  0  0  0  0  0  0
    4.3542    1.7208    0.0000 O   0  0  0  0  0  0  0  0  0  0  0  0
    3.0375    0.9500    0.0000 O   0  0  0  0  0  0  0  0  0  0  0  0
    2.1917   -4.3167    0.0000 C   0  0  0  0  0  0  0  0  0  0  0  0
    0.8500   -5.1000    0.0000 C   0  0  0  0  0  0  0  0  0  0  0  0
    5.0375    2.1125    0.0000 C   0  0  0  0  0  0  0  0  0  0  0  0
    5.7500   -1.3167    0.0000 C   0  0  0  0  0  0  0  0  0  0  0  0
    2.3792    0.5708    0.0000 C   0  0  0  0  0  0  0  0  0  0  0  0
    2.1917   -5.1000    0.0000 C   0  0  0  0  0  0  0  0  0  0  0  0
    1.5167   -5.4792    0.0000 C   0  0  0  0  0  0  0  0  0  0  0  0
  2  3  2  0  0  0  0
  3  1  1  0  0  0  0
  4 10  1  0  0  0  0
  5 16  1  0  0  0  0
  6 11  1  0  0  0  0
  7  1  2  0  0  0  0
  8  9  2  0  0  0  0
  8  2  1  0  0  0  0
  9  7  1  0  0  0  0
 10  1  1  0  0  0  0
 11  5  1  0  0  0  0
 12  6  1  0  0  0  0
 13  4  1  0  0  0  0
 14  4  1  0  0  0  0
 15 13  1  0  0  0  0
 15  5  1  0  0  0  0
 16 14  1  0  0  0  0
 17 12  1  0  0  0  0
 18  3  1  0  0  0  0
 19  8  1  0  0  0  0
 20  9  1  0  0  0  0
 21  6  2  0  0  0  0
 22 12  2  0  0  0  0
 23 19  1  0  0  0  0
 24 18  1  0  0  0  0
 25 20  1  0  0  0  0
 26 21  1  0  0  0  0
 27 26  2  0  0  0  0
 27 22  1  0  0  0  0
M  END
>  <ID>
5865838

>  <Supplier>
ChemBridge

>  <clogP>
4.520000000000000e+000

>  <RB>
4

>  <tPSA>
3.417000000000000e+001

>  <Hacc>
5

>  <Hdon>
0

>  <LogSw>
-4.902000000000000e+000

>  <Group>
1

>  <Core>
164

$$$$
6995957
 OpenBabel03312015312D

 22 23  0  0  0  0  0  0  0  0999 V2000
    1.5542   -1.6292    0.0000 C   0  0  0  0  0  0  0  0  0  0  0  0
    1.9792   -2.3417    0.0000 C   0  0  0  0  0  0  0  0  0  0  0  0
    1.9542   -0.9042    0.0000 C   0  0  0  0  0  0  0  0  0  0  0  0
    2.7875   -0.8917    0.0000 N   0  0  0  0  0  0  0  0  0  0  0  0
    2.8042   -2.3292    0.0000 N   0  0  0  0  0  0  0  0  0  0  0  0
    1.4292   -2.9667    0.0000 S   0  0  0  0  0  0  0  0  0  0  0  0
    0.7417   -1.8167    0.0000 C   0  0  0  0  0  0  0  0  0  0  0  0
    3.2042   -1.6167    0.0000 C   0  0  0  0  0  0  0  0  0  0  0  0
    0.6667   -2.6417    0.0000 C   0  0  0  0  0  0  0  0  0  0  0  0
    3.1917   -0.1792    0.0000 C   0  0  3  0  0  0  0  0  0  0  0  0
    4.0167   -0.1667    0.0000 C   0  0  0  0  0  0  0  0  0  0  0  0
    1.5292   -0.2042    0.0000 O   0  0  0  0  0  0  0  0  0  0  0  0
    4.4375   -0.8792    0.0000 O   0  0  0  0  0  0  0  0  0  0  0  0
    4.4250    0.5458    0.0000 O   0  0  0  0  0  0  0  0  0  0  0  0
    5.2625   -0.8750    0.0000 C   0  0  0  0  0  0  0  0  0  0  0  0
    0.0667   -1.3417    0.0000 C   0  0  0  0  0  0  0  0  0  0  0  0
   -0.0833   -3.0000    0.0000 C   0  0  0  0  0  0  0  0  0  0  0  0
    2.7750    0.5333    0.0000 C   0  0  0  0  0  0  0  0  0  0  0  0
    5.6667   -0.1542    0.0000 C   0  0  0  0  0  0  0  0  0  0  0  0
    3.1792    1.2500    0.0000 C   0  0  0  0  0  0  0  0  0  0  0  0
    6.4917   -0.1500    0.0000 C   0  0  0  0  0  0  0  0  0  0  0  0
    5.2500    0.5583    0.0000 C   0  0  0  0  0  0  0  0  0  0  0  0
  2  1  2  0  0  0  0
  3  1  1  0  0  0  0
  4  3  1  0  0  0  0
  5  2  1  0  0  0  0
  5  8  2  0  0  0  0
  6  2  1  0  0  0  0
  7  1  1  0  0  0  0
  8  4  1  0  0  0  0
  9  7  2  0  0  0  0
  9  6  1  0  0  0  0
 10  4  1  0  0  0  0
 11 10  1  0  0  0  0
 12  3  2  0  0  0  0
 13 11  1  0  0  0  0
 14 11  2  0  0  0  0
 15 13  1  0  0  0  0
 16  7  1  0  0  0  0
 17  9  1  0  0  0  0
 18 10  1  0  0  0  0
 19 15  1  0  0  0  0
 20 18  1  0  0  0  0
 21 19  1  0  0  0  0
 22 19  1  0  0  0  0
M  END
>  <ID>
6995957

>  <Supplier>
ChemBridge

>  <clogP>
3.960000000000000e+000

>  <RB>
4

>  <tPSA>
6.119000000000000e+001

>  <Hacc>
4

>  <Hdon>
0

>  <LogSw>
-4.933000000000002e+000

>  <Group>
2

>  <Core>
062

$$$$
6374367
 OpenBabel03312015312D

 26 28  0  0  0  0  0  0  0  0999 V2000
    4.6167   -1.1542    0.0000 N   0  0  0  0  0  0  0  0  0  0  0  0
    4.3875   -1.8667    0.0000 C   0  0  0  0  0  0  0  0  0  0  0  0
    5.6000   -1.8667    0.0000 C   0  0  0  0  0  0  0  0  0  0  0  0
    5.3667   -1.1542    0.0000 C   0  0  0  0  0  0  0  0  0  0  0  0
    4.9917   -2.3125    0.0000 S   0  0  0  0  0  0  0  0  0  0  0  0
    6.3125   -2.1000    0.0000 C   0  0  0  0  0  0  0  0  0  0  0  0
    6.4667   -2.8292    0.0000 C   0  0  0  0  0  0  0  0  0  0  0  0
    3.6750   -2.1000    0.0000 S   0  0  0  0  0  0  0  0  0  0  0  0
    5.8042   -0.5500    0.0000 O   0  0  0  0  0  0  0  0  0  0  0  0
    7.1792   -3.0667    0.0000 C   0  0  0  0  0  0  0  0  0  0  0  0
   10.2792   -2.0292    0.0000 C   0  0  0  0  0  0  0  0  0  0  0  0
   10.6917   -0.7917    0.0000 C   0  0  0  0  0  0  0  0  0  0  0  0
   11.5542   -1.7667    0.0000 C   0  0  0  0  0  0  0  0  0  0  0  0
   10.1292   -1.2917    0.0000 C   0  0  0  0  0  0  0  0  0  0  0  0
   10.9917   -2.2625    0.0000 C   0  0  0  0  0  0  0  0  0  0  0  0
   11.4042   -1.0292    0.0000 C   0  0  0  0  0  0  0  0  0  0  0  0
    7.7417   -2.5667    0.0000 O   0  0  0  0  0  0  0  0  0  0  0  0
    9.7250   -2.5292    0.0000 O   0  0  0  0  0  0  0  0  0  0  0  0
    5.9125   -3.3292    0.0000 C   0  0  0  0  0  0  0  0  0  0  0  0
    7.3417   -3.8042    0.0000 C   0  0  0  0  0  0  0  0  0  0  0  0
   10.5417   -0.0542    0.0000 C   0  0  0  0  0  0  0  0  0  0  0  0
   12.2667   -2.0042    0.0000 C   0  0  0  0  0  0  0  0  0  0  0  0
    8.4542   -2.8000    0.0000 C   0  0  0  0  0  0  0  0  0  0  0  0
    9.0125   -2.3000    0.0000 C   0  0  0  0  0  0  0  0  0  0  0  0
    6.0667   -4.0667    0.0000 C   0  0  0  0  0  0  0  0  0  0  0  0
    6.7750   -4.3042    0.0000 C   0  0  0  0  0  0  0  0  0  0  0  0
  2  1  1  0  0  0  0
  3  4  1  0  0  0  0
  4  1  1  0  0  0  0
  5  2  1  0  0  0  0
  5  3  1  0  0  0  0
  6  3  2  0  0  0  0
  7  6  1  0  0  0  0
  8  2  2  0  0  0  0
  9  4  2  0  0  0  0
 10  7  2  0  0  0  0
 11 18  1  0  0  0  0
 12 14  2  0  0  0  0
 13 15  1  0  0  0  0
 14 11  1  0  0  0  0
 15 11  2  0  0  0  0
 16 13  2  0  0  0  0
 16 12  1  0  0  0  0
 17 10  1  0  0  0  0
 18 24  1  0  0  0  0
 19  7  1  0  0  0  0
 20 10  1  0  0  0  0
 21 12  1  0  0  0  0
 22 13  1  0  0  0  0
 23 17  1  0  0  0  0
 24 23  1  0  0  0  0
 25 19  2  0  0  0  0
 26 25  1  0  0  0  0
 26 20  2  0  0  0  0
M  END
>  <ID>
6374367

>  <Supplier>
ChemBridge

>  <clogP>
4.480000000000000e+000

>  <RB>
6

>  <tPSA>
4.756000000000000e+001

>  <Hacc>
3

>  <Hdon>
1

>  <LogSw>
-5.836000000000000e+000

>  <Group>
1

>  <Core>
001

$$$$
6374364
 OpenBabel03312015312D

 23 25  0  0  0  0  0  0  0  0999 V2000
    2.5042    0.3250    0.0000 C   0  0  0  0  0  0  0  0  0  0  0  0
    3.2250    0.7333    0.0000 N   0  0  0  0  0  0  0  0  0  0  0  0
    5.8125   -0.7792    0.0000 N   0  0  0  0  0  0  0  0  0  0  0  0
    2.5000   -0.5000    0.0000 O   0  0  0  0  0  0  0  0  0  0  0  0
    1.8542    0.7000    0.0000 C   0  0  0  0  0  0  0  0  0  0  0  0
    3.8667    0.3583    0.0000 C   0  0  0  0  0  0  0  0  0  0  0  0
    5.1667   -0.4000    0.0000 C   0  0  0  0  0  0  0  0  0  0  0  0
    6.4667   -0.4042    0.0000 C   0  0  0  0  0  0  0  0  0  0  0  0
    5.1667    0.3500    0.0000 C   0  0  0  0  0  0  0  0  0  0  0  0
    4.5167    0.7333    0.0000 C   0  0  0  0  0  0  0  0  0  0  0  0
    3.8667   -0.3917    0.0000 C   0  0  0  0  0  0  0  0  0  0  0  0
    4.5125   -0.7667    0.0000 C   0  0  0  0  0  0  0  0  0  0  0  0
    1.2042    0.3250    0.0000 C   0  0  0  0  0  0  0  0  0  0  0  0
    7.1125   -0.7917    0.0000 C   0  0  0  0  0  0  0  0  0  0  0  0
    6.4667    0.3458    0.0000 C   0  0  0  0  0  0  0  0  0  0  0  0
    1.2042   -0.4250    0.0000 C   0  0  0  0  0  0  0  0  0  0  0  0
    0.5542    0.7000    0.0000 C   0  0  0  0  0  0  0  0  0  0  0  0
   -0.0958    0.3250    0.0000 C   0  0  0  0  0  0  0  0  0  0  0  0
    7.7667   -0.4167    0.0000 C   0  0  0  0  0  0  0  0  0  0  0  0
    7.1250    0.7125    0.0000 C   0  0  0  0  0  0  0  0  0  0  0  0
    0.5542   -0.8000    0.0000 C   0  0  0  0  0  0  0  0  0  0  0  0
   -0.0958   -0.4250    0.0000 C   0  0  0  0  0  0  0  0  0  0  0  0
    7.7667    0.3333    0.0000 C   0  0  0  0  0  0  0  0  0  0  0  0
  2  1  1  0  0  0  0
  3  7  1  0  0  0  0
  4  1  2  0  0  0  0
  5  1  1  0  0  0  0
  6  2  1  0  0  0  0
  7 12  2  0  0  0  0
  8  3  1  0  0  0  0
  9 10  2  0  0  0  0
  9  7  1  0  0  0  0
 10  6  1  0  0  0  0
 11  6  2  0  0  0  0
 12 11  1  0  0  0  0
 13  5  1  0  0  0  0
 14  8  1  0  0  0  0
 15  8  2  0  0  0  0
 16 13  2  0  0  0  0
 17 13  1  0  0  0  0
 18 17  2  0  0  0  0
 19 14  2  0  0  0  0
 20 15  1  0  0  0  0
 21 16  1  0  0  0  0
 21 22  2  0  0  0  0
 22 18  1  0  0  0  0
 23 20  2  0  0  0  0
 23 19  1  0  0  0  0
M  END
>  <ID>
6374364

>  <Supplier>
ChemBridge

>  <clogP>
4.170000000000000e+000

>  <RB>
5

>  <tPSA>
4.113000000000000e+001

>  <Hacc>
1

>  <Hdon>
2

>  <LogSw>
-4.966000000000000e+000

>  <Group>
3

>  <Core>
513

$$$$
5323501
 OpenBabel03312015312D

 34 37  0  0  0  0  0  0  0  0999 V2000
   -0.6333    1.0125    0.0000 C   0  0  0  0  0  0  0  0  0  0  0  0
   -0.6333    0.3000    0.0000 C   0  0  0  0  0  0  0  0  0  0  0  0
    0.5792    0.3000    0.0000 N   0  0  0  0  0  0  0  0  0  0  0  0
   -1.8333    1.0125    0.0000 N   0  0  0  0  0  0  0  0  0  0  0  0
   -0.0333   -0.0292    0.0000 C   0  0  0  0  0  0  0  0  0  0  0  0
   -1.2208    1.3500    0.0000 C   0  0  0  0  0  0  0  0  0  0  0  0
   -1.8458    0.3000    0.0000 C   0  0  0  0  0  0  0  0  0  0  0  0
    1.1792   -0.0542    0.0000 C   0  0  0  0  0  0  0  0  0  0  0  0
   -2.4333   -0.0292    0.0000 C   0  0  0  0  0  0  0  0  0  0  0  0
    1.7875    0.3000    0.0000 C   0  0  0  0  0  0  0  0  0  0  0  0
   -3.6458   -0.7375    0.0000 C   0  0  0  0  0  0  0  0  0  0  0  0
    3.0167    0.9958    0.0000 C   0  0  0  0  0  0  0  0  0  0  0  0
    1.8042    1.0125    0.0000 C   0  0  0  0  0  0  0  0  0  0  0  0
   -3.0458    0.3208    0.0000 C   0  0  0  0  0  0  0  0  0  0  0  0
    2.3792   -0.0542    0.0000 C   0  0  0  0  0  0  0  0  0  0  0  0
   -2.4333   -0.7375    0.0000 C   0  0  0  0  0  0  0  0  0  0  0  0
   -3.6458   -0.0292    0.0000 C   0  0  0  0  0  0  0  0  0  0  0  0
    3.0000    0.2958    0.0000 C   0  0  0  0  0  0  0  0  0  0  0  0
   -3.0458   -1.0875    0.0000 C   0  0  0  0  0  0  0  0  0  0  0  0
    2.3792    1.3500    0.0000 C   0  0  0  0  0  0  0  0  0  0  0  0
   -4.2708   -1.0875    0.0000 O   0  0  0  0  0  0  0  0  0  0  0  0
    3.6375    1.3208    0.0000 O   0  0  0  0  0  0  0  0  0  0  0  0
   -0.0125    1.3500    0.0000 C   0  0  0  0  0  0  0  0  0  0  0  0
   -1.2458   -0.0542    0.0000 C   0  0  0  0  0  0  0  0  0  0  0  0
   -0.0333   -0.7375    0.0000 C   0  0  0  0  0  0  0  0  0  0  0  0
   -1.2208    2.0458    0.0000 C   0  0  0  0  0  0  0  0  0  0  0  0
   -4.2708   -1.7875    0.0000 C   0  0  0  0  0  0  0  0  0  0  0  0
    4.2292    0.9458    0.0000 C   0  0  0  0  0  0  0  0  0  0  0  0
   -0.0125    2.0500    0.0000 C   0  0  0  0  0  0  0  0  0  0  0  0
   -1.2458   -0.7375    0.0000 C   0  0  0  0  0  0  0  0  0  0  0  0
   -4.8500   -2.1292    0.0000 C   0  0  0  0  0  0  0  0  0  0  0  0
    4.8292    1.2708    0.0000 C   0  0  0  0  0  0  0  0  0  0  0  0
   -0.6333    2.3833    0.0000 C   0  0  0  0  0  0  0  0  0  0  0  0
   -0.6333   -1.0875    0.0000 C   0  0  0  0  0  0  0  0  0  0  0  0
  2  1  1  0  0  0  0
  3  5  1  0  0  0  0
  4  6  1  0  0  0  0
  5  2  1  0  0  0  0
  6  1  1  0  0  0  0
  7  4  2  0  0  0  0
  8  3  2  0  0  0  0
  9  7  1  0  0  0  0
 10  8  1  0  0  0  0
 11 19  2  0  0  0  0
 11 17  1  0  0  0  0
 12 18  1  0  0  0  0
 13 10  2  0  0  0  0
 14  9  1  0  0  0  0
 15 10  1  0  0  0  0
 16  9  2  0  0  0  0
 17 14  2  0  0  0  0
 18 15  2  0  0  0  0
 19 16  1  0  0  0  0
 20 13  1  0  0  0  0
 20 12  2  0  0  0  0
 21 11  1  0  0  0  0
 22 12  1  0  0  0  0
 23  1  2  0  0  0  0
 24  2  2  0  0  0  0
 25  5  2  0  0  0  0
 25 34  1  0  0  0  0
 26  6  2  0  0  0  0
 26 33  1  0  0  0  0
 27 21  1  0  0  0  0
 28 22  1  0  0  0  0
 29 23  1  0  0  0  0
 30 24  1  0  0  0  0
 31 27  1  0  0  0  0
 32 28  1  0  0  0  0
 33 29  2  0  0  0  0
 34 30  2  0  0  0  0
M  END
>  <ID>
5323501

>  <Supplier>
ChemBridge

>  <clogP>
6.340000000000000e+000

>  <RB>
5

>  <tPSA>
4.317999999999998e+001

>  <Hacc>
4

>  <Hdon>
0

>  <LogSw>
-7.884000000000000e+000

>  <Group>
1

>  <Core>
464

$$$$
5787960
 OpenBabel03312015312D

 23 24  0  0  0  0  0  0  0  0999 V2000
    3.2292   -2.8292    0.0000 N   0  0  0  0  0  0  0  0  0  0  0  0
    4.4292   -3.5042    0.0000 C   0  0  3  0  0  0  0  0  0  0  0  0
    3.2375   -3.5167    0.0000 N   0  0  0  0  0  0  0  0  0  0  0  0
    3.8375   -3.8542    0.0000 C   0  0  0  0  0  0  0  0  0  0  0  0
    3.8250   -2.4750    0.0000 C   0  0  0  0  0  0  0  0  0  0  0  0
    5.1000   -3.6542    0.0000 C   0  0  0  0  0  0  0  0  0  0  0  0
    7.3042   -4.3417    0.0000 N   0  0  0  0  0  0  0  0  0  0  0  0
    5.8167   -4.6125    0.0000 C   0  0  0  0  0  0  0  0  0  0  0  0
    8.7625   -4.7042    0.0000 C   0  0  0  0  0  0  0  0  0  0  0  0
    8.5542   -3.9875    0.0000 C   0  0  0  0  0  0  0  0  0  0  0  0
    3.8417   -4.5417    0.0000 O   0  0  0  0  0  0  0  0  0  0  0  0
    6.4917   -4.1417    0.0000 N   0  0  0  0  0  0  0  0  0  0  0  0
    5.9250   -5.2917    0.0000 O   0  0  0  0  0  0  0  0  0  0  0  0
    7.8292   -3.8042    0.0000 C   0  0  0  0  0  0  0  0  0  0  0  0
    5.1792   -4.3417    0.0000 C   0  0  0  0  0  0  0  0  0  0  0  0
    9.4875   -4.8875    0.0000 C   0  0  0  0  0  0  0  0  0  0  0  0
    4.0000   -1.8125    0.0000 C   0  0  0  0  0  0  0  0  0  0  0  0
    9.0750   -3.4500    0.0000 C   0  0  0  0  0  0  0  0  0  0  0  0
    9.6917   -5.6042    0.0000 C   0  0  0  0  0  0  0  0  0  0  0  0
   10.0042   -4.3417    0.0000 C   0  0  0  0  0  0  0  0  0  0  0  0
   10.4250   -5.7875    0.0000 C   0  0  0  0  0  0  0  0  0  0  0  0
   10.7375   -4.5292    0.0000 C   0  0  0  0  0  0  0  0  0  0  0  0
   10.9500   -5.2417    0.0000 C   0  0  0  0  0  0  0  0  0  0  0  0
  2  5  1  0  0  0  0
  3  1  1  0  0  0  0
  4  3  1  0  0  0  0
  4  2  1  0  0  0  0
  5  1  2  0  0  0  0
  6  2  1  0  0  0  0
  7 12  1  0  0  0  0
  8 15  1  0  0  0  0
  9 10  2  0  0  0  0
 10 14  1  0  0  0  0
 11  4  2  0  0  0  0
 12  8  1  0  0  0  0
 13  8  2  0  0  0  0
 14  7  2  0  0  0  0
 15  6  1  0  0  0  0
 16  9  1  0  0  0  0
 17  5  1  0  0  0  0
 18 10  1  0  0  0  0
 19 16  1  0  0  0  0
 20 16  2  0  0  0  0
 21 19  2  0  0  0  0
 21 23  1  0  0  0  0
 22 20  1  0  0  0  0
 23 22  2  0  0  0  0
M  END
>  <ID>
5787960

>  <Supplier>
ChemBridge

>  <clogP>
4.900000000000000e+000

>  <RB>
6

>  <tPSA>
8.292000000000000e+001

>  <Hacc>
4

>  <Hdon>
2

>  <LogSw>
-5.662999999999998e+000

>  <Group>
2

>  <Core>
216

$$$$
5323503
 OpenBabel03312015312D

 19 20  0  0  0  0  0  0  0  0999 V2000
    2.5875   -1.1000    0.0000 N   0  3  0  0  0  0  0  0  0  0  0  0
    3.2375    0.0708    0.0000 C   0  0  0  0  0  0  0  0  0  0  0  0
    2.5542    1.2125    0.0000 C   0  0  0  0  0  0  0  0  0  0  0  0
    0.6042    0.0125    0.0000 N   0  0  0  0  0  0  0  0  0  0  0  0
    1.2292    1.1833    0.0000 C   0  0  0  0  0  0  0  0  0  0  0  0
   -2.7458    1.0958    0.0000 C   0  0  0  0  0  0  0  0  0  0  0  0
    1.2542   -1.1000    0.0000 O   0  5  0  0  0  0  0  0  0  0  0  0
   -1.4125    1.0958    0.0000 C   0  0  0  0  0  0  0  0  0  0  0  0
    3.2875   -2.2292    0.0000 O   0  0  0  0  0  0  0  0  0  0  0  0
   -3.3958   -0.0667    0.0000 C   0  0  0  0  0  0  0  0  0  0  0  0
   -0.7208   -0.0042    0.0000 C   0  0  0  0  0  0  0  0  0  0  0  0
   -2.6958   -1.2167    0.0000 C   0  0  0  0  0  0  0  0  0  0  0  0
   -3.4625    2.2333    0.0000 F   0  0  0  0  0  0  0  0  0  0  0  0
   -1.3833   -1.1875    0.0000 C   0  0  0  0  0  0  0  0  0  0  0  0
    4.5667    0.1000    0.0000 C   0  0  0  0  0  0  0  0  0  0  0  0
    3.2000    2.3833    0.0000 C   0  0  0  0  0  0  0  0  0  0  0  0
   -4.7083   -0.0917    0.0000 C   0  0  0  0  0  0  0  0  0  0  0  0
    5.2042    1.2458    0.0000 C   0  0  0  0  0  0  0  0  0  0  0  0
    4.5042    2.4125    0.0000 C   0  0  0  0  0  0  0  0  0  0  0  0
  2  1  1  0  0  0  0
  3  2  2  0  0  0  0
  4  5  2  0  0  0  0
  5  3  1  0  0  0  0
  6  8  2  0  0  0  0
  7  1  1  0  0  0  0
  8 11  1  0  0  0  0
  9  1  2  0  0  0  0
 10 12  2  0  0  0  0
 10  6  1  0  0  0  0
 11  4  1  0  0  0  0
 12 14  1  0  0  0  0
 13  6  1  0  0  0  0
 14 11  2  0  0  0  0
 15  2  1  0  0  0  0
 16  3  1  0  0  0  0
 16 19  2  0  0  0  0
 17 10  1  0  0  0  0
 18 15  2  0  0  0  0
 19 18  1  0  0  0  0
M  CHG  2   1   1   7  -1
M  END
>  <ID>
5323503

>  <Supplier>
ChemBridge

>  <clogP>
3.400000000000000e+000

>  <RB>
2

>  <tPSA>
5.550000000000000e+001

>  <Hacc>
3

>  <Hdon>
0

>  <LogSw>
-4.378000000000000e+000

>  <Group>
1

>  <Core>
464

$$$$
5950591
 OpenBabel03312015312D

 34 37  0  0  0  0  0  0  0  0999 V2000
    0.5542    1.8125    0.0000 C   0  0  0  0  0  0  0  0  0  0  0  0
    1.0167    0.3833    0.0000 N   0  0  0  0  0  0  0  0  0  0  0  0
    1.7792    0.9458    0.0000 C   0  0  0  0  0  0  0  0  0  0  0  0
    1.4875    1.8125    0.0000 C   0  0  0  0  0  0  0  0  0  0  0  0
    0.2792    0.9208    0.0000 C   0  0  3  0  0  0  0  0  0  0  0  0
   -0.6208    0.6833    0.0000 C   0  0  0  0  0  0  0  0  0  0  0  0
    2.5167   -2.5000    0.0000 N   0  3  0  0  0  0  0  0  0  0  0  0
    0.9792   -0.5500    0.0000 C   0  0  0  0  0  0  0  0  0  0  0  0
    0.0292    2.5833    0.0000 C   0  0  0  0  0  0  0  0  0  0  0  0
    1.7792   -1.0500    0.0000 C   0  0  0  0  0  0  0  0  0  0  0  0
    1.7375   -1.9875    0.0000 C   0  0  0  0  0  0  0  0  0  0  0  0
   -0.8625   -0.2292    0.0000 C   0  0  0  0  0  0  0  0  0  0  0  0
    2.6875    0.6625    0.0000 O   0  0  0  0  0  0  0  0  0  0  0  0
   -1.2833    1.3458    0.0000 C   0  0  0  0  0  0  0  0  0  0  0  0
    2.4542   -3.4292    0.0000 O   0  5  0  0  0  0  0  0  0  0  0  0
    3.3375   -2.0667    0.0000 O   0  0  0  0  0  0  0  0  0  0  0  0
    0.4292    3.4333    0.0000 O   0  0  0  0  0  0  0  0  0  0  0  0
   -0.8958    2.5000    0.0000 C   0  0  0  0  0  0  0  0  0  0  0  0
    2.0375    2.6125    0.0000 O   0  0  0  0  0  0  0  0  0  0  0  0
   -1.7500   -0.5000    0.0000 C   0  0  0  0  0  0  0  0  0  0  0  0
   -2.1958    1.0708    0.0000 C   0  0  0  0  0  0  0  0  0  0  0  0
   -2.4333    0.1958    0.0000 C   0  0  0  0  0  0  0  0  0  0  0  0
    0.1667   -0.9875    0.0000 C   0  0  0  0  0  0  0  0  0  0  0  0
   -0.2000   -0.8792    0.0000 O   0  0  0  0  0  0  0  0  0  0  0  0
   -2.8833    1.7000    0.0000 O   0  0  0  0  0  0  0  0  0  0  0  0
    0.9167   -2.4292    0.0000 C   0  0  0  0  0  0  0  0  0  0  0  0
    0.1500   -1.9167    0.0000 C   0  0  0  0  0  0  0  0  0  0  0  0
   -1.2958    1.6625    0.0000 C   0  0  0  0  0  0  0  0  0  0  0  0
   -1.4208    3.2708    0.0000 C   0  0  0  0  0  0  0  0  0  0  0  0
   -0.4208   -1.7667    0.0000 C   0  0  0  0  0  0  0  0  0  0  0  0
   -3.7625    1.4333    0.0000 C   0  0  0  0  0  0  0  0  0  0  0  0
   -2.2333    1.5958    0.0000 C   0  0  0  0  0  0  0  0  0  0  0  0
   -2.3500    3.2083    0.0000 C   0  0  0  0  0  0  0  0  0  0  0  0
   -2.7333    2.3458    0.0000 C   0  0  0  0  0  0  0  0  0  0  0  0
  2  5  1  0  0  0  0
  2  3  1  0  0  0  0
  3  4  1  0  0  0  0
  4  1  2  0  0  0  0
  5  1  1  0  0  0  0
  6  5  1  0  0  0  0
  7 11  1  0  0  0  0
  8  2  1  0  0  0  0
  9  1  1  0  0  0  0
 10  8  1  0  0  0  0
 11 10  2  0  0  0  0
 11 26  1  0  0  0  0
 12  6  1  0  0  0  0
 13  3  2  0  0  0  0
 14  6  2  0  0  0  0
 15  7  1  0  0  0  0
 16  7  2  0  0  0  0
 17  9  2  0  0  0  0
 18  9  1  0  0  0  0
 19  4  1  0  0  0  0
 20 12  2  0  0  0  0
 20 22  1  0  0  0  0
 21 14  1  0  0  0  0
 22 21  2  0  0  0  0
 23  8  2  0  0  0  0
 24 12  1  0  0  0  0
 25 21  1  0  0  0  0
 26 27  2  0  0  0  0
 27 23  1  0  0  0  0
 28 18  1  0  0  0  0
 29 18  2  0  0  0  0
 30 24  1  0  0  0  0
 31 25  1  0  0  0  0
 32 28  2  0  0  0  0
 32 34  1  0  0  0  0
 33 29  1  0  0  0  0
 34 33  2  0  0  0  0
M  CHG  2   7   1  15  -1
M  END
>  <ID>
5950591

>  <Supplier>
ChemBridge

>  <clogP>
5.030000000000000e+000

>  <RB>
4

>  <tPSA>
1.192100000000000e+002

>  <Hacc>
7

>  <Hdon>
1

>  <LogSw>
-7.242000000000000e+000

>  <Group>
2

>  <Core>
095

$$$$
9154855
 OpenBabel03312015312D

 31 35  0  0  0  0  0  0  0  0999 V2000
    8.1375    3.2458    0.0000 C   0  0  0  0  0  0  0  0  0  0  0  0
    6.9500    2.9958    0.0000 N   0  0  0  0  0  0  0  0  0  0  0  0
    8.0625    2.4958    0.0000 N   0  0  0  0  0  0  0  0  0  0  0  0
    7.3250    2.3458    0.0000 C   0  0  0  0  0  0  0  0  0  0  0  0
    5.8250    2.3458    0.0000 C   0  0  0  0  0  0  0  0  0  0  0  0
    7.4542    3.5458    0.0000 N   0  0  0  0  0  0  0  0  0  0  0  0
    6.2000    2.9958    0.0000 C   0  0  0  0  0  0  0  0  0  0  0  0
    5.0750    2.3458    0.0000 C   0  0  0  0  0  0  0  0  0  0  0  0
    6.9500    1.6958    0.0000 N   0  0  0  0  0  0  0  0  0  0  0  0
    8.7875    3.6208    0.0000 C   0  0  0  0  0  0  0  0  0  0  0  0
    5.8250    3.6458    0.0000 C   0  0  0  0  0  0  0  0  0  0  0  0
    4.7000    2.9958    0.0000 N   0  0  0  0  0  0  0  0  0  0  0  0
    6.2000    1.6958    0.0000 C   0  0  0  0  0  0  0  0  0  0  0  0
    1.6667    4.0125    0.0000 N   0  0  0  0  0  0  0  0  0  0  0  0
    5.0750    3.6458    0.0000 C   0  0  0  0  0  0  0  0  0  0  0  0
    2.3792    3.0333    0.0000 C   0  0  0  0  0  0  0  0  0  0  0  0
    2.8250    3.6458    0.0000 C   0  0  0  0  0  0  0  0  0  0  0  0
    2.3792    4.2417    0.0000 C   0  0  0  0  0  0  0  0  0  0  0  0
    1.6667    3.2708    0.0000 C   0  0  0  0  0  0  0  0  0  0  0  0
    4.7000    1.6958    0.0000 O   0  0  0  0  0  0  0  0  0  0  0  0
    3.9500    2.9958    0.0000 C   0  0  0  0  0  0  0  0  0  0  0  0
    2.5417    2.3000    0.0000 C   0  0  0  0  0  0  0  0  0  0  0  0
    3.5750    3.6458    0.0000 C   0  0  0  0  0  0  0  0  0  0  0  0
    8.5917    4.3375    0.0000 F   0  0  0  0  0  0  0  0  0  0  0  0
    9.1042    2.9375    0.0000 F   0  0  0  0  0  0  0  0  0  0  0  0
    9.4917    3.8750    0.0000 F   0  0  0  0  0  0  0  0  0  0  0  0
    1.1167    2.7708    0.0000 C   0  0  0  0  0  0  0  0  0  0  0  0
    1.9792    1.7958    0.0000 C   0  0  0  0  0  0  0  0  0  0  0  0
    1.2667    2.0333    0.0000 C   0  0  0  0  0  0  0  0  0  0  0  0
    2.1417    1.0625    0.0000 O   0  0  0  0  0  0  0  0  0  0  0  0
    1.5792    0.5625    0.0000 C   0  0  0  0  0  0  0  0  0  0  0  0
  2  6  1  0  0  0  0
  2  4  1  0  0  0  0
  3  1  1  0  0  0  0
  4  3  2  0  0  0  0
  5  7  2  0  0  0  0
  5 13  1  0  0  0  0
  6  1  2  0  0  0  0
  7  2  1  0  0  0  0
  8  5  1  0  0  0  0
  9  4  1  0  0  0  0
 10  1  1  0  0  0  0
 11  7  1  0  0  0  0
 12 15  1  0  0  0  0
 12  8  1  0  0  0  0
 13  9  2  0  0  0  0
 14 18  1  0  0  0  0
 14 19  1  0  0  0  0
 15 11  2  0  0  0  0
 16 17  1  0  0  0  0
 17 23  1  0  0  0  0
 18 17  2  0  0  0  0
 19 16  2  0  0  0  0
 20  8  2  0  0  0  0
 21 12  1  0  0  0  0
 22 16  1  0  0  0  0
 23 21  1  0  0  0  0
 24 10  1  0  0  0  0
 25 10  1  0  0  0  0
 26 10  1  0  0  0  0
 27 19  1  0  0  0  0
 27 29  2  0  0  0  0
 28 22  2  0  0  0  0
 29 28  1  0  0  0  0
 30 28  1  0  0  0  0
 31 30  1  0  0  0  0
M  END
>  <ID>
9154855

>  <Supplier>
ChemBridge

>  <clogP>
2.516000000000000e+000

>  <RB>
3

>  <tPSA>
9.010000000000002e+001

>  <Hacc>
5

>  <Hdon>
1

>  <LogSw>
-5.581000000000000e+000

>  <Group>
2

$$$$
5787969
 OpenBabel03312015312D

 20 21  0  0  0  0  0  0  0  0999 V2000
   -1.7708   -0.7375    0.0000 S   0  0  0  0  0  0  0  0  0  0  0  0
   -3.0500   -0.7500    0.0000 C   0  0  0  0  0  0  0  0  0  0  0  0
   -0.5458   -0.7500    0.0000 N   0  0  0  0  0  0  0  0  0  0  0  0
   -3.6708    0.3708    0.0000 C   0  0  0  0  0  0  0  0  0  0  0  0
   -1.7958   -2.0000    0.0000 O   0  0  0  0  0  0  0  0  0  0  0  0
   -1.7708    0.4958    0.0000 O   0  0  0  0  0  0  0  0  0  0  0  0
   -3.6958   -1.8167    0.0000 C   0  0  0  0  0  0  0  0  0  0  0  0
    0.0875    0.3333    0.0000 C   0  0  0  0  0  0  0  0  0  0  0  0
    1.9875    1.3958    0.0000 O   0  0  0  0  0  0  0  0  0  0  0  0
   -4.9583   -1.8167    0.0000 C   0  0  0  0  0  0  0  0  0  0  0  0
   -4.9208    0.4000    0.0000 C   0  0  0  0  0  0  0  0  0  0  0  0
    1.3375    0.3208    0.0000 C   0  0  3  0  0  0  0  0  0  0  0  0
   -5.5708   -0.7042    0.0000 C   0  0  0  0  0  0  0  0  0  0  0  0
   -3.0500   -2.9292    0.0000 O   0  0  0  0  0  0  0  0  0  0  0  0
   -5.5500    1.5000    0.0000 O   0  0  0  0  0  0  0  0  0  0  0  0
    3.2042    1.1000    0.0000 C   0  0  0  0  0  0  0  0  0  0  0  0
   -1.7833   -2.9292    0.0000 C   0  0  0  0  0  0  0  0  0  0  0  0
   -4.8958    2.5625    0.0000 C   0  0  0  0  0  0  0  0  0  0  0  0
    2.1667   -0.6500    0.0000 C   0  0  0  0  0  0  0  0  0  0  0  0
    3.3042   -0.1375    0.0000 C   0  0  0  0  0  0  0  0  0  0  0  0
  2  1  1  0  0  0  0
  3  1  1  0  0  0  0
  4  2  2  0  0  0  0
  5  1  2  0  0  0  0
  6  1  2  0  0  0  0
  7  2  1  0  0  0  0
  8  3  1  0  0  0  0
  9 12  1  0  0  0  0
 10  7  2  0  0  0  0
 11  4  1  0  0  0  0
 11 13  2  0  0  0  0
 12  8  1  0  0  0  0
 13 10  1  0  0  0  0
 14  7  1  0  0  0  0
 15 11  1  0  0  0  0
 16  9  1  0  0  0  0
 17 14  1  0  0  0  0
 18 15  1  0  0  0  0
 19 12  1  0  0  0  0
 20 19  1  0  0  0  0
 20 16  1  0  0  0  0
M  END
>  <ID>
5787969

>  <Supplier>
ChemBridge

>  <clogP>
1.380000000000000e+000

>  <RB>
3

>  <tPSA>
7.386000000000000e+001

>  <Hacc>
6

>  <Hdon>
1

>  <LogSw>
-2.576000000000000e+000

>  <Group>
3

$$$$
7677031
 OpenBabel03312015312D

 30 32  0  0  0  0  0  0  0  0999 V2000
    5.4417   -7.0292    0.0000 S   0  0  0  0  0  0  0  0  0  0  0  0
    5.4417   -7.8542    0.0000 N   0  0  0  0  0  0  0  0  0  0  0  0
    6.1542   -8.2667    0.0000 C   0  0  0  0  0  0  0  0  0  0  0  0
    6.8750   -7.8625    0.0000 C   0  0  0  0  0  0  0  0  0  0  0  0
    5.4417   -6.2000    0.0000 C   0  0  0  0  0  0  0  0  0  0  0  0
    6.2750   -7.0292    0.0000 O   0  0  0  0  0  0  0  0  0  0  0  0
    4.6167   -7.0250    0.0000 O   0  0  0  0  0  0  0  0  0  0  0  0
    7.5917   -8.2792    0.0000 N   0  0  0  0  0  0  0  0  0  0  0  0
    6.8792   -7.0292    0.0000 O   0  0  0  0  0  0  0  0  0  0  0  0
    4.7250   -5.7875    0.0000 C   0  0  0  0  0  0  0  0  0  0  0  0
    6.1542   -5.7792    0.0000 C   0  0  0  0  0  0  0  0  0  0  0  0
    8.3042   -7.8542    0.0000 C   0  0  0  0  0  0  0  0  0  0  0  0
   10.4292   -6.5917    0.0000 O   0  0  0  0  0  0  0  0  0  0  0  0
    9.7167   -7.0167    0.0000 C   0  0  0  0  0  0  0  0  0  0  0  0
    5.4292   -4.5417    0.0000 C   0  0  0  0  0  0  0  0  0  0  0  0
   10.4167   -5.7667    0.0000 C   0  0  0  0  0  0  0  0  0  0  0  0
    6.1542   -4.9500    0.0000 C   0  0  0  0  0  0  0  0  0  0  0  0
    4.7167   -4.9625    0.0000 C   0  0  0  0  0  0  0  0  0  0  0  0
    5.4292   -3.7167    0.0000 F   0  0  0  0  0  0  0  0  0  0  0  0
    9.0250   -8.2625    0.0000 C   0  0  0  0  0  0  0  0  0  0  0  0
    8.2917   -7.0292    0.0000 C   0  0  0  0  0  0  0  0  0  0  0  0
    9.7375   -7.8375    0.0000 C   0  0  0  0  0  0  0  0  0  0  0  0
    8.9917   -6.6125    0.0000 C   0  0  0  0  0  0  0  0  0  0  0  0
    4.7250   -8.2667    0.0000 C   0  0  0  0  0  0  0  0  0  0  0  0
   11.1167   -5.3417    0.0000 C   0  0  0  0  0  0  0  0  0  0  0  0
   11.8417   -5.7500    0.0000 C   0  0  0  0  0  0  0  0  0  0  0  0
   11.1125   -4.5292    0.0000 C   0  0  0  0  0  0  0  0  0  0  0  0
   11.8125   -4.1000    0.0000 C   0  0  0  0  0  0  0  0  0  0  0  0
   12.5500   -5.3292    0.0000 C   0  0  0  0  0  0  0  0  0  0  0  0
   12.5375   -4.5042    0.0000 C   0  0  0  0  0  0  0  0  0  0  0  0
  2  1  1  0  0  0  0
  3  2  1  0  0  0  0
  4  3  1  0  0  0  0
  5  1  1  0  0  0  0
  6  1  2  0  0  0  0
  7  1  2  0  0  0  0
  8  4  1  0  0  0  0
  9  4  2  0  0  0  0
 10  5  1  0  0  0  0
 11  5  2  0  0  0  0
 12  8  1  0  0  0  0
 13 14  1  0  0  0  0
 14 23  1  0  0  0  0
 15 17  2  0  0  0  0
 16 13  1  0  0  0  0
 17 11  1  0  0  0  0
 18 10  2  0  0  0  0
 18 15  1  0  0  0  0
 19 15  1  0  0  0  0
 20 12  2  0  0  0  0
 21 12  1  0  0  0  0
 22 20  1  0  0  0  0
 22 14  2  0  0  0  0
 23 21  2  0  0  0  0
 24  2  1  0  0  0  0
 25 16  1  0  0  0  0
 26 25  2  0  0  0  0
 27 25  1  0  0  0  0
 28 27  2  0  0  0  0
 29 26  1  0  0  0  0
 30 28  1  0  0  0  0
 30 29  2  0  0  0  0
M  END
>  <ID>
7677031

>  <Supplier>
ChemBridge

>  <clogP>
4.413000000000000e+000

>  <RB>
7

>  <tPSA>
7.570999999999999e+001

>  <Hacc>
5

>  <Hdon>
1

>  <LogSw>
-5.145000000000000e+000

>  <Group>
1

>  <Core>
084

$$$$
5950598
 OpenBabel03312015312D

 21 23  0  0  0  0  0  0  0  0999 V2000
   -0.8958    0.8833    0.0000 C   0  0  0  0  0  0  0  0  0  0  0  0
   -0.4708    0.6000    0.0000 O   0  0  0  0  0  0  0  0  0  0  0  0
   -2.6958   -0.0167    0.0000 C   0  0  0  0  0  0  0  0  0  0  0  0
   -0.0708    0.9000    0.0000 C   0  0  0  0  0  0  0  0  0  0  0  0
   -2.2958    0.2833    0.0000 C   0  0  0  0  0  0  0  0  0  0  0  0
   -1.8708   -0.0167    0.0000 C   0  0  0  0  0  0  0  0  0  0  0  0
   -2.5333   -0.5000    0.0000 O   0  0  0  0  0  0  0  0  0  0  0  0
    0.6042    0.2833    0.0000 C   0  0  0  0  0  0  0  0  0  0  0  0
   -0.7500    1.3625    0.0000 C   0  0  0  0  0  0  0  0  0  0  0  0
   -1.3708    0.7000    0.0000 C   0  0  0  0  0  0  0  0  0  0  0  0
    1.6042    0.0208    0.0000 N   0  0  0  0  0  0  0  0  0  0  0  0
   -0.1125   -0.4792    0.0000 N   0  0  0  0  0  0  0  0  0  0  0  0
    0.4667    0.7833    0.0000 C   0  0  0  0  0  0  0  0  0  0  0  0
    1.1042    0.1458    0.0000 C   0  0  0  0  0  0  0  0  0  0  0  0
    0.2500   -0.0917    0.0000 C   0  0  0  0  0  0  0  0  0  0  0  0
   -1.4125    0.2000    0.0000 C   0  0  0  0  0  0  0  0  0  0  0  0
   -0.2500    1.3833    0.0000 C   0  0  0  0  0  0  0  0  0  0  0  0
   -2.2500    0.8000    0.0000 C   0  0  0  0  0  0  0  0  0  0  0  0
   -2.0333   -0.5000    0.0000 C   0  0  0  0  0  0  0  0  0  0  0  0
   -1.7958    1.0208    0.0000 C   0  0  0  0  0  0  0  0  0  0  0  0
   -3.1958    0.1458    0.0000 O   0  0  0  0  0  0  0  0  0  0  0  0
  2  1  1  0  0  0  0
  3  5  1  0  0  0  0
  3  7  1  0  0  0  0
  4  2  1  0  0  0  0
  4 17  2  0  0  0  0
  5 18  1  0  0  0  0
  6 16  1  0  0  0  0
  6  5  2  0  0  0  0
  7 19  1  0  0  0  0
  8 13  2  0  0  0  0
  9  1  2  0  0  0  0
 10  1  1  0  0  0  0
 11 14  3  0  0  0  0
 12 15  3  0  0  0  0
 13  4  1  0  0  0  0
 14  8  1  0  0  0  0
 15  8  1  0  0  0  0
 16 10  2  0  0  0  0
 17  9  1  0  0  0  0
 18 20  2  0  0  0  0
 19  6  1  0  0  0  0
 20 10  1  0  0  0  0
 21  3  2  0  0  0  0
M  END
>  <ID>
5950598

>  <Supplier>
ChemBridge

>  <clogP>
2.410000000000000e+000

>  <RB>
2

>  <tPSA>
8.702000000000000e+001

>  <Hacc>
5

>  <Hdon>
0

>  <LogSw>
-3.538000000000000e+000

>  <Group>
2

>  <Core>
109

$$$$
5950599
 OpenBabel03312015312D

 27 29  0  0  0  0  0  0  0  0999 V2000
    6.8000   -1.7000    0.0000 N   0  0  0  0  0  0  0  0  0  0  0  0
    7.0667   -0.9167    0.0000 C   0  0  0  0  0  0  0  0  0  0  0  0
    5.9750   -1.6917    0.0000 C   0  0  0  0  0  0  0  0  0  0  0  0
    5.7292   -0.8917    0.0000 C   0  0  0  0  0  0  0  0  0  0  0  0
    6.4042   -0.4250    0.0000 C   0  0  0  0  0  0  0  0  0  0  0  0
    7.2667   -2.3792    0.0000 C   0  0  0  0  0  0  0  0  0  0  0  0
    2.8750   -0.9000    0.0000 C   0  0  0  0  0  0  0  0  0  0  0  0
    1.4417   -0.9000    0.0000 N   0  0  0  0  0  0  0  0  0  0  0  0
    4.3042   -0.9000    0.0000 N   0  0  0  0  0  0  0  0  0  0  0  0
    5.0167   -0.4875    0.0000 C   0  0  0  0  0  0  0  0  0  0  0  0
    3.5917   -0.4875    0.0000 N   0  0  0  0  0  0  0  0  0  0  0  0
    2.1625   -0.4875    0.0000 C   0  0  0  0  0  0  0  0  0  0  0  0
    6.9167   -3.1250    0.0000 C   0  0  0  0  0  0  0  0  0  0  0  0
    8.0917   -2.3042    0.0000 C   0  0  0  0  0  0  0  0  0  0  0  0
    2.8750   -1.7250    0.0000 O   0  0  0  0  0  0  0  0  0  0  0  0
    0.0125   -1.7125    0.0000 O   0  0  0  0  0  0  0  0  0  0  0  0
    7.8542   -0.6792    0.0000 C   0  0  0  0  0  0  0  0  0  0  0  0
    5.4792   -2.3500    0.0000 C   0  0  0  0  0  0  0  0  0  0  0  0
    1.4417   -1.7167    0.0000 C   0  0  0  0  0  0  0  0  0  0  0  0
    0.7292   -0.4792    0.0000 C   0  0  0  0  0  0  0  0  0  0  0  0
    8.2125   -3.7292    0.0000 C   0  0  0  0  0  0  0  0  0  0  0  0
    7.3875   -3.8000    0.0000 C   0  0  0  0  0  0  0  0  0  0  0  0
    8.5625   -2.9792    0.0000 C   0  0  0  0  0  0  0  0  0  0  0  0
    0.7292   -2.1292    0.0000 C   0  0  0  0  0  0  0  0  0  0  0  0
    0.0167   -0.8875    0.0000 C   0  0  0  0  0  0  0  0  0  0  0  0
    8.4417   -1.5542    0.0000 C   0  0  0  0  0  0  0  0  0  0  0  0
    6.0917   -3.1917    0.0000 C   0  0  0  0  0  0  0  0  0  0  0  0
  2  1  1  0  0  0  0
  3  1  1  0  0  0  0
  4  3  2  0  0  0  0
  4  5  1  0  0  0  0
  5  2  2  0  0  0  0
  6  1  1  0  0  0  0
  7 11  1  0  0  0  0
  8 12  1  0  0  0  0
  9 10  2  0  0  0  0
 10  4  1  0  0  0  0
 11  9  1  0  0  0  0
 12  7  1  0  0  0  0
 13  6  2  0  0  0  0
 14  6  1  0  0  0  0
 15  7  2  0  0  0  0
 16 25  1  0  0  0  0
 16 24  1  0  0  0  0
 17  2  1  0  0  0  0
 18  3  1  0  0  0  0
 19  8  1  0  0  0  0
 20  8  1  0  0  0  0
 21 23  1  0  0  0  0
 21 22  2  0  0  0  0
 22 13  1  0  0  0  0
 23 14  2  0  0  0  0
 24 19  1  0  0  0  0
 25 20  1  0  0  0  0
 26 14  1  0  0  0  0
 27 13  1  0  0  0  0
M  END
>  <ID>
5950599

>  <Supplier>
ChemBridge

>  <clogP>
4.250000000000000e+000

>  <RB>
5

>  <tPSA>
5.886000000000000e+001

>  <Hacc>
5

>  <Hdon>
1

>  <LogSw>
-5.516000000000000e+000

>  <Group>
3

>  <Core>
216

$$$$
6066060
 OpenBabel03312015312D

 20 21  0  0  0  0  0  0  0  0999 V2000
    4.9625   -4.2167    0.0000 C   0  0  0  0  0  0  0  0  0  0  0  0
    4.2417   -3.8000    0.0000 C   0  0  0  0  0  0  0  0  0  0  0  0
    3.5250   -4.2042    0.0000 C   0  0  0  0  0  0  0  0  0  0  0  0
    9.2500   -4.2167    0.0000 N   0  0  0  0  0  0  0  0  0  0  0  0
    8.5375   -3.8042    0.0000 C   0  0  0  0  0  0  0  0  0  0  0  0
    4.9542   -5.0417    0.0000 O   0  0  0  0  0  0  0  0  0  0  0  0
    5.6792   -3.8042    0.0000 N   0  0  0  0  0  0  0  0  0  0  0  0
    7.8250   -4.2167    0.0000 S   0  0  0  0  0  0  0  0  0  0  0  0
    2.8125   -3.7917    0.0000 C   0  0  0  0  0  0  0  0  0  0  0  0
    9.9625   -3.8042    0.0000 C   0  0  0  0  0  0  0  0  0  0  0  0
    8.5292   -2.9792    0.0000 C   0  0  0  0  0  0  0  0  0  0  0  0
    6.3917   -4.2167    0.0000 C   0  0  0  0  0  0  0  0  0  0  0  0
    7.1042   -3.8042    0.0000 C   0  0  0  0  0  0  0  0  0  0  0  0
    2.1000   -4.1917    0.0000 C   0  0  0  0  0  0  0  0  0  0  0  0
    2.8167   -2.9625    0.0000 C   0  0  0  0  0  0  0  0  0  0  0  0
    9.9625   -2.9792    0.0000 C   0  0  0  0  0  0  0  0  0  0  0  0
    9.2417   -2.5667    0.0000 C   0  0  0  0  0  0  0  0  0  0  0  0
    2.1042   -2.5417    0.0000 C   0  0  0  0  0  0  0  0  0  0  0  0
    1.3875   -3.7792    0.0000 C   0  0  0  0  0  0  0  0  0  0  0  0
    1.3917   -2.9542    0.0000 C   0  0  0  0  0  0  0  0  0  0  0  0
  2  1  1  0  0  0  0
  3  2  2  0  0  0  0
  4  5  2  0  0  0  0
  5  8  1  0  0  0  0
  6  1  2  0  0  0  0
  7  1  1  0  0  0  0
  8 13  1  0  0  0  0
  9  3  1  0  0  0  0
 10  4  1  0  0  0  0
 11  5  1  0  0  0  0
 12  7  1  0  0  0  0
 13 12  1  0  0  0  0
 14  9  1  0  0  0  0
 15  9  2  0  0  0  0
 16 17  1  0  0  0  0
 16 10  2  0  0  0  0
 17 11  2  0  0  0  0
 18 15  1  0  0  0  0
 19 14  2  0  0  0  0
 19 20  1  0  0  0  0
 20 18  2  0  0  0  0
M  END
>  <ID>
6066060

>  <Supplier>
ChemBridge

>  <clogP>
3.120000000000000e+000

>  <RB>
6

>  <tPSA>
4.199000000000000e+001

>  <Hacc>
2

>  <Hdon>
1

>  <LogSw>
-3.939000000000000e+000

>  <Group>
3

$$$$
6816656
 OpenBabel03312015312D

 29 31  0  0  0  0  0  0  0  0999 V2000
    8.4250    0.0458    0.0000 N   0  3  0  0  0  0  0  0  0  0  0  0
    4.1292    0.0625    0.0000 C   0  0  0  0  0  0  0  0  0  0  0  0
    7.7042   -0.3625    0.0000 C   0  0  0  0  0  0  0  0  0  0  0  0
    9.1375   -0.3750    0.0000 O   0  5  0  0  0  0  0  0  0  0  0  0
    4.8417   -0.3417    0.0000 O   0  0  0  0  0  0  0  0  0  0  0  0
    5.5542   -1.5875    0.0000 C   0  0  0  0  0  0  0  0  0  0  0  0
    8.4292    0.8708    0.0000 O   0  0  0  0  0  0  0  0  0  0  0  0
    3.4167   -0.3542    0.0000 C   0  0  0  0  0  0  0  0  0  0  0  0
    6.2667   -1.1792    0.0000 C   0  0  0  0  0  0  0  0  0  0  0  0
    4.1292    0.8875    0.0000 O   0  0  0  0  0  0  0  0  0  0  0  0
    4.8417   -1.1667    0.0000 C   0  0  0  0  0  0  0  0  0  0  0  0
    5.5500   -2.4042    0.0000 O   0  0  0  0  0  0  0  0  0  0  0  0
    6.9917    0.0583    0.0000 C   0  0  0  0  0  0  0  0  0  0  0  0
    7.6917   -1.1917    0.0000 C   0  0  0  0  0  0  0  0  0  0  0  0
    6.2750   -0.3417    0.0000 C   0  0  0  0  0  0  0  0  0  0  0  0
    6.9792   -1.5917    0.0000 C   0  0  0  0  0  0  0  0  0  0  0  0
    3.4167   -1.1792    0.0000 C   0  0  0  0  0  0  0  0  0  0  0  0
    2.7000    0.0583    0.0000 C   0  0  0  0  0  0  0  0  0  0  0  0
    1.2792   -1.5917    0.0000 O   0  0  0  0  0  0  0  0  0  0  0  0
    1.9917   -1.1792    0.0000 C   0  0  0  0  0  0  0  0  0  0  0  0
    0.5667   -1.1875    0.0000 C   0  0  0  0  0  0  0  0  0  0  0  0
    2.7042   -1.5917    0.0000 C   0  0  0  0  0  0  0  0  0  0  0  0
    1.9875   -0.3625    0.0000 C   0  0  0  0  0  0  0  0  0  0  0  0
   -0.1458   -1.6042    0.0000 C   0  0  0  0  0  0  0  0  0  0  0  0
   -0.1458   -2.4292    0.0000 C   0  0  0  0  0  0  0  0  0  0  0  0
   -0.8625   -1.1917    0.0000 C   0  0  0  0  0  0  0  0  0  0  0  0
   -0.8625   -2.8417    0.0000 C   0  0  0  0  0  0  0  0  0  0  0  0
   -1.5750   -1.6042    0.0000 C   0  0  0  0  0  0  0  0  0  0  0  0
   -1.5750   -2.4292    0.0000 C   0  0  0  0  0  0  0  0  0  0  0  0
  2  5  1  0  0  0  0
  3  1  1  0  0  0  0
  4  1  1  0  0  0  0
  5 11  1  0  0  0  0
  6  9  1  0  0  0  0
  7  1  2  0  0  0  0
  8  2  1  0  0  0  0
  9 16  2  0  0  0  0
 10  2  2  0  0  0  0
 11  6  1  0  0  0  0
 12  6  2  0  0  0  0
 13  3  1  0  0  0  0
 14  3  2  0  0  0  0
 15 13  2  0  0  0  0
 15  9  1  0  0  0  0
 16 14  1  0  0  0  0
 17  8  2  0  0  0  0
 18  8  1  0  0  0  0
 19 20  1  0  0  0  0
 20 23  1  0  0  0  0
 20 22  2  0  0  0  0
 21 19  1  0  0  0  0
 22 17  1  0  0  0  0
 23 18  2  0  0  0  0
 24 21  1  0  0  0  0
 25 24  1  0  0  0  0
 26 24  2  0  0  0  0
 27 25  2  0  0  0  0
 28 26  1  0  0  0  0
 29 28  2  0  0  0  0
 29 27  1  0  0  0  0
M  CHG  2   1   1   4  -1
M  END
>  <ID>
6816656

>  <Supplier>
ChemBridge

>  <clogP>
4.910000000000000e+000

>  <RB>
8

>  <tPSA>
9.574000000000000e+001

>  <Hacc>
6

>  <Hdon>
0

>  <LogSw>
-6.636000000000000e+000

>  <Group>
1

>  <Core>
217

$$$$
7123132
 OpenBabel03312015312D

 21 22  0  0  0  0  0  0  0  0999 V2000
    9.6792   -3.8042    0.0000 N   0  3  0  0  0  0  0  0  0  0  0  0
    6.0917   -4.2375    0.0000 C   0  0  0  0  0  0  0  0  0  0  0  0
    6.8042   -3.8167    0.0000 N   0  0  0  0  0  0  0  0  0  0  0  0
    8.9542   -4.2167    0.0000 C   0  0  0  0  0  0  0  0  0  0  0  0
    5.3792   -3.8250    0.0000 C   0  0  3  0  0  0  0  0  0  0  0  0
    8.2417   -3.8042    0.0000 C   0  0  0  0  0  0  0  0  0  0  0  0
   10.3917   -4.2167    0.0000 O   0  5  0  0  0  0  0  0  0  0  0  0
    9.6750   -2.9750    0.0000 O   0  0  0  0  0  0  0  0  0  0  0  0
    7.5167   -4.2250    0.0000 C   0  0  0  0  0  0  0  0  0  0  0  0
    6.0917   -5.0625    0.0000 O   0  0  0  0  0  0  0  0  0  0  0  0
    4.6667   -4.2375    0.0000 C   0  0  0  0  0  0  0  0  0  0  0  0
    5.3792   -3.0000    0.0000 O   0  0  0  0  0  0  0  0  0  0  0  0
    8.9542   -5.0542    0.0000 C   0  0  0  0  0  0  0  0  0  0  0  0
    8.2417   -5.4667    0.0000 C   0  0  0  0  0  0  0  0  0  0  0  0
    7.5250   -5.0542    0.0000 C   0  0  0  0  0  0  0  0  0  0  0  0
    4.6667   -5.0542    0.0000 C   0  0  0  0  0  0  0  0  0  0  0  0
    3.9500   -3.8167    0.0000 C   0  0  0  0  0  0  0  0  0  0  0  0
    6.0917   -2.5875    0.0000 C   0  0  0  0  0  0  0  0  0  0  0  0
    3.9500   -5.4667    0.0000 C   0  0  0  0  0  0  0  0  0  0  0  0
    3.2375   -4.2250    0.0000 C   0  0  0  0  0  0  0  0  0  0  0  0
    3.2292   -5.0500    0.0000 C   0  0  0  0  0  0  0  0  0  0  0  0
  2  3  1  0  0  0  0
  3  9  1  0  0  0  0
  4  1  1  0  0  0  0
  5  2  1  0  0  0  0
  6  4  1  0  0  0  0
  7  1  1  0  0  0  0
  8  1  2  0  0  0  0
  9  6  2  0  0  0  0
  9 15  1  0  0  0  0
 10  2  2  0  0  0  0
 11  5  1  0  0  0  0
 12  5  1  0  0  0  0
 13  4  2  0  0  0  0
 14 13  1  0  0  0  0
 15 14  2  0  0  0  0
 16 11  1  0  0  0  0
 17 11  2  0  0  0  0
 18 12  1  0  0  0  0
 19 16  2  0  0  0  0
 20 17  1  0  0  0  0
 21 20  2  0  0  0  0
 21 19  1  0  0  0  0
M  CHG  2   1   1   7  -1
M  END
>  <ID>
7123132

>  <Supplier>
ChemBridge

>  <clogP>
2.800000000000000e+000

>  <RB>
3

>  <tPSA>
8.147000000000000e+001

>  <Hacc>
4

>  <Hdon>
1

>  <LogSw>
-4.069000000000000e+000

>  <Group>
3

>  <Core>
513

$$$$
6816653
 OpenBabel03312015312D

 29 30  0  0  0  0  0  0  0  0999 V2000
   -0.1000   -1.8875    0.0000 N   0  3  0  0  0  0  0  0  0  0  0  0
   -0.5000   -1.2042    0.0000 C   0  0  0  0  0  0  0  0  0  0  0  0
   -2.3958   -0.5375    0.0000 C   0  0  0  0  0  0  0  0  0  0  0  0
   -0.1458    2.0625    0.0000 C   0  0  0  0  0  0  0  0  0  0  0  0
   -1.2458   -1.1875    0.0000 C   0  0  0  0  0  0  0  0  0  0  0  0
    1.8167    1.4500    0.0000 C   0  0  0  0  0  0  0  0  0  0  0  0
   -1.6208   -0.5500    0.0000 C   0  0  0  0  0  0  0  0  0  0  0  0
    0.6417    2.1000    0.0000 C   0  0  0  0  0  0  0  0  0  0  0  0
    2.1917    0.7625    0.0000 N   0  0  0  0  0  0  0  0  0  0  0  0
   -0.1125   -0.5500    0.0000 C   0  0  0  0  0  0  0  0  0  0  0  0
    1.0417    1.4375    0.0000 C   0  0  0  0  0  0  0  0  0  0  0  0
    1.8042    0.0958    0.0000 C   0  0  0  0  0  0  0  0  0  0  0  0
   -0.5125   -2.5375    0.0000 O   0  5  0  0  0  0  0  0  0  0  0  0
    0.6792   -0.5500    0.0000 S   0  0  0  0  0  0  0  0  0  0  0  0
    0.6542   -1.9000    0.0000 O   0  0  0  0  0  0  0  0  0  0  0  0
    2.2042    2.1125    0.0000 C   0  0  0  0  0  0  0  0  0  0  0  0
   -1.2333    0.1000    0.0000 C   0  0  0  0  0  0  0  0  0  0  0  0
    1.0292    2.7708    0.0000 C   0  0  0  0  0  0  0  0  0  0  0  0
    2.1792   -0.5375    0.0000 O   0  0  0  0  0  0  0  0  0  0  0  0
   -0.4708    0.1000    0.0000 C   0  0  0  0  0  0  0  0  0  0  0  0
    1.8042    2.7750    0.0000 C   0  0  0  0  0  0  0  0  0  0  0  0
   -2.3625    0.2458    0.0000 F   0  0  0  0  0  0  0  0  0  0  0  0
   -0.9333    2.0375    0.0000 F   0  0  0  0  0  0  0  0  0  0  0  0
   -0.1833    2.8625    0.0000 F   0  0  0  0  0  0  0  0  0  0  0  0
   -0.1208    1.2708    0.0000 F   0  0  0  0  0  0  0  0  0  0  0  0
   -2.3833   -1.3000    0.0000 F   0  0  0  0  0  0  0  0  0  0  0  0
   -3.1500   -0.5292    0.0000 F   0  0  0  0  0  0  0  0  0  0  0  0
    1.0667    0.1125    0.0000 C   0  0  0  0  0  0  0  0  0  0  0  0
    2.9875    2.1083    0.0000 Cl  0  0  0  0  0  0  0  0  0  0  0  0
  2  1  1  0  0  0  0
  3  7  1  0  0  0  0
  4  8  1  0  0  0  0
  5  2  2  0  0  0  0
  6  9  1  0  0  0  0
  7  5  1  0  0  0  0
  7 17  2  0  0  0  0
  8 11  2  0  0  0  0
  9 12  1  0  0  0  0
 10  2  1  0  0  0  0
 11  6  1  0  0  0  0
 12 28  1  0  0  0  0
 13  1  1  0  0  0  0
 14 10  1  0  0  0  0
 15  1  2  0  0  0  0
 16  6  2  0  0  0  0
 17 20  1  0  0  0  0
 18 21  2  0  0  0  0
 18  8  1  0  0  0  0
 19 12  2  0  0  0  0
 20 10  2  0  0  0  0
 21 16  1  0  0  0  0
 22  3  1  0  0  0  0
 23  4  1  0  0  0  0
 24  4  1  0  0  0  0
 25  4  1  0  0  0  0
 26  3  1  0  0  0  0
 27  3  1  0  0  0  0
 28 14  1  0  0  0  0
 29 16  1  0  0  0  0
M  CHG  2   1   1  13  -1
M  END
>  <ID>
6816653

>  <Supplier>
ChemBridge

>  <clogP>
5.300000000000000e+000

>  <RB>
4

>  <tPSA>
7.224000000000000e+001

>  <Hacc>
3

>  <Hdon>
1

>  <LogSw>
-7.460000000000000e+000

>  <Group>
1

>  <Core>
431

$$$$
7123139
 OpenBabel03312015312D

 25 27  0  0  0  0  0  0  0  0999 V2000
    3.7125   -0.6500    0.0000 N   0  0  0  0  0  0  0  0  0  0  0  0
    3.9625   -1.4375    0.0000 C   0  0  0  0  0  0  0  0  0  0  0  0
    4.3750   -0.1667    0.0000 C   0  0  0  0  0  0  0  0  0  0  0  0
    5.0417   -0.6500    0.0000 C   0  0  0  0  0  0  0  0  0  0  0  0
    4.7875   -1.4375    0.0000 S   0  0  0  0  0  0  0  0  0  0  0  0
    5.8292   -0.3917    0.0000 C   0  0  0  0  0  0  0  0  0  0  0  0
    2.9292   -0.3917    0.0000 C   0  0  0  0  0  0  0  0  0  0  0  0
    2.3125   -0.9500    0.0000 C   0  0  0  0  0  0  0  0  0  0  0  0
    3.4792   -2.1042    0.0000 O   0  0  0  0  0  0  0  0  0  0  0  0
    4.3750    0.6583    0.0000 O   0  0  0  0  0  0  0  0  0  0  0  0
    6.3292    2.0208    0.0000 C   0  0  0  0  0  0  0  0  0  0  0  0
    2.4875   -1.7542    0.0000 O   0  0  0  0  0  0  0  0  0  0  0  0
    6.0000    0.4125    0.0000 C   0  0  0  0  0  0  0  0  0  0  0  0
    6.4917    2.8208    0.0000 C   0  0  0  0  0  0  0  0  0  0  0  0
    6.9417    1.4708    0.0000 C   0  0  0  0  0  0  0  0  0  0  0  0
    5.5542    1.7583    0.0000 C   0  0  0  0  0  0  0  0  0  0  0  0
    6.7875    0.6625    0.0000 C   0  0  0  0  0  0  0  0  0  0  0  0
    5.3875    0.9583    0.0000 C   0  0  0  0  0  0  0  0  0  0  0  0
    1.5292   -0.6917    0.0000 O   0  0  0  0  0  0  0  0  0  0  0  0
    7.2667    3.0833    0.0000 C   0  0  0  0  0  0  0  0  0  0  0  0
    5.8792    3.3625    0.0000 C   0  0  0  0  0  0  0  0  0  0  0  0
    1.3542    0.1083    0.0000 C   0  0  0  0  0  0  0  0  0  0  0  0
    7.4417    3.8750    0.0000 C   0  0  0  0  0  0  0  0  0  0  0  0
    6.0500    4.1542    0.0000 C   0  0  0  0  0  0  0  0  0  0  0  0
    6.8292    4.4167    0.0000 C   0  0  0  0  0  0  0  0  0  0  0  0
  2  1  1  0  0  0  0
  3  1  1  0  0  0  0
  4  3  1  0  0  0  0
  4  5  1  0  0  0  0
  5  2  1  0  0  0  0
  6  4  2  0  0  0  0
  7  1  1  0  0  0  0
  8  7  1  0  0  0  0
  9  2  2  0  0  0  0
 10  3  2  0  0  0  0
 11 16  1  0  0  0  0
 11 15  2  0  0  0  0
 12  8  2  0  0  0  0
 13  6  1  0  0  0  0
 14 11  1  0  0  0  0
 15 17  1  0  0  0  0
 16 18  2  0  0  0  0
 17 13  2  0  0  0  0
 18 13  1  0  0  0  0
 19  8  1  0  0  0  0
 20 14  2  0  0  0  0
 21 14  1  0  0  0  0
 22 19  1  0  0  0  0
 23 20  1  0  0  0  0
 23 25  2  0  0  0  0
 24 21  2  0  0  0  0
 25 24  1  0  0  0  0
M  END
>  <ID>
7123139

>  <Supplier>
ChemBridge

>  <clogP>
4.300000000000000e+000

>  <RB>
4

>  <tPSA>
6.367999999999998e+001

>  <Hacc>
4

>  <Hdon>
0

>  <LogSw>
-5.449000000000002e+000

>  <Group>
2

>  <Core>
002

$$$$
7278168
 OpenBabel03312015312D

 27 29  0  0  0  0  0  0  0  0999 V2000
    0.4500    0.2708    0.0000 C   0  0  0  0  0  0  0  0  0  0  0  0
   -0.2500   -0.0875    0.0000 C   0  0  0  0  0  0  0  0  0  0  0  0
    1.0375   -0.2792    0.0000 C   0  0  0  0  0  0  0  0  0  0  0  0
   -0.1125   -0.8875    0.0000 S   0  0  0  0  0  0  0  0  0  0  0  0
    0.6667   -1.0042    0.0000 C   0  0  0  0  0  0  0  0  0  0  0  0
   -1.0000    0.2708    0.0000 N   0  0  0  0  0  0  0  0  0  0  0  0
    0.5375    1.0708    0.0000 C   0  0  0  0  0  0  0  0  0  0  0  0
   -1.6625   -0.1792    0.0000 C   0  0  0  0  0  0  0  0  0  0  0  0
    1.8292   -0.1042    0.0000 C   0  0  0  0  0  0  0  0  0  0  0  0
    1.2792    1.3833    0.0000 O   0  0  0  0  0  0  0  0  0  0  0  0
   -1.6000   -0.9875    0.0000 O   0  0  0  0  0  0  0  0  0  0  0  0
   -3.0500   -0.3000    0.0000 S   0  0  0  0  0  0  0  0  0  0  0  0
    2.0667    0.6625    0.0000 C   0  0  0  0  0  0  0  0  0  0  0  0
    2.3792   -0.7042    0.0000 C   0  0  0  0  0  0  0  0  0  0  0  0
   -2.4000    0.1625    0.0000 C   0  0  0  0  0  0  0  0  0  0  0  0
   -0.1125    1.5333    0.0000 O   0  0  0  0  0  0  0  0  0  0  0  0
    3.4042    0.2333    0.0000 C   0  0  0  0  0  0  0  0  0  0  0  0
   -3.7708    0.0458    0.0000 C   0  0  0  0  0  0  0  0  0  0  0  0
    2.8667    0.8333    0.0000 C   0  0  0  0  0  0  0  0  0  0  0  0
    3.1667   -0.5375    0.0000 C   0  0  0  0  0  0  0  0  0  0  0  0
    4.1875    0.4000    0.0000 Cl  0  0  0  0  0  0  0  0  0  0  0  0
   -0.8500    1.2000    0.0000 C   0  0  0  0  0  0  0  0  0  0  0  0
   -4.4208   -0.4167    0.0000 C   0  0  0  0  0  0  0  0  0  0  0  0
   -3.8458    0.8500    0.0000 C   0  0  0  0  0  0  0  0  0  0  0  0
   -4.5833    1.1958    0.0000 C   0  0  0  0  0  0  0  0  0  0  0  0
   -5.1625   -0.0875    0.0000 C   0  0  0  0  0  0  0  0  0  0  0  0
   -5.2458    0.7208    0.0000 C   0  0  0  0  0  0  0  0  0  0  0  0
  2  1  2  0  0  0  0
  3  1  1  0  0  0  0
  4  2  1  0  0  0  0
  5  3  2  0  0  0  0
  5  4  1  0  0  0  0
  6  2  1  0  0  0  0
  7  1  1  0  0  0  0
  8  6  1  0  0  0  0
  9  3  1  0  0  0  0
 10  7  2  0  0  0  0
 11  8  2  0  0  0  0
 12 15  1  0  0  0  0
 13  9  1  0  0  0  0
 14  9  2  0  0  0  0
 15  8  1  0  0  0  0
 16  7  1  0  0  0  0
 17 20  2  0  0  0  0
 17 19  1  0  0  0  0
 18 12  1  0  0  0  0
 19 13  2  0  0  0  0
 20 14  1  0  0  0  0
 21 17  1  0  0  0  0
 22 16  1  0  0  0  0
 23 18  1  0  0  0  0
 24 18  2  0  0  0  0
 25 24  1  0  0  0  0
 26 23  2  0  0  0  0
 26 27  1  0  0  0  0
 27 25  2  0  0  0  0
M  END
>  <ID>
7278168

>  <Supplier>
ChemBridge

>  <clogP>
6.010000000000000e+000

>  <RB>
6

>  <tPSA>
5.540000000000000e+001

>  <Hacc>
3

>  <Hdon>
1

>  <LogSw>
-7.379000000000000e+000

>  <Group>
1

>  <Core>
098

$$$$
6816659
 OpenBabel03312015312D

 24 25  0  0  0  0  0  0  0  0999 V2000
    9.2250   -2.8542    0.0000 N   0  0  0  0  0  0  0  0  0  0  0  0
    9.9292   -2.4542    0.0000 C   0  0  0  0  0  0  0  0  0  0  0  0
    7.7542   -2.8875    0.0000 C   0  0  0  0  0  0  0  0  0  0  0  0
   10.6292   -2.8625    0.0000 C   0  0  0  0  0  0  0  0  0  0  0  0
    8.5292   -2.4500    0.0000 O   0  0  0  0  0  0  0  0  0  0  0  0
    4.2500   -1.6417    0.0000 C   0  0  0  0  0  0  0  0  0  0  0  0
    7.7417   -3.7792    0.0000 O   0  0  0  0  0  0  0  0  0  0  0  0
   11.3292   -2.4542    0.0000 C   0  0  0  0  0  0  0  0  0  0  0  0
   10.6250   -3.6667    0.0000 C   0  0  0  0  0  0  0  0  0  0  0  0
    4.9542   -1.2417    0.0000 C   0  0  0  0  0  0  0  0  0  0  0  0
    4.2417   -2.4542    0.0000 C   0  0  0  0  0  0  0  0  0  0  0  0
    9.9292   -1.6417    0.0000 N   0  0  0  0  0  0  0  0  0  0  0  0
    7.0542   -2.4750    0.0000 C   0  0  0  0  0  0  0  0  0  0  0  0
    6.3500   -2.8750    0.0000 O   0  0  0  0  0  0  0  0  0  0  0  0
    5.6500   -2.4667    0.0000 C   0  0  0  0  0  0  0  0  0  0  0  0
   12.0250   -3.6750    0.0000 C   0  0  0  0  0  0  0  0  0  0  0  0
    3.5375   -1.2250    0.0000 C   0  0  0  0  0  0  0  0  0  0  0  0
    5.6542   -1.6542    0.0000 C   0  0  0  0  0  0  0  0  0  0  0  0
    4.9417   -2.8667    0.0000 C   0  0  0  0  0  0  0  0  0  0  0  0
   12.0292   -2.8667    0.0000 C   0  0  0  0  0  0  0  0  0  0  0  0
   11.3250   -4.0667    0.0000 C   0  0  0  0  0  0  0  0  0  0  0  0
   12.7250   -4.0792    0.0000 Cl  0  0  0  0  0  0  0  0  0  0  0  0
    3.5417   -0.4000    0.0000 C   0  0  0  0  0  0  0  0  0  0  0  0
    2.8167   -1.6292    0.0000 C   0  0  0  0  0  0  0  0  0  0  0  0
  2  1  2  0  0  0  0
  3  5  1  0  0  0  0
  4  2  1  0  0  0  0
  5  1  1  0  0  0  0
  6 11  2  0  0  0  0
  7  3  2  0  0  0  0
  8  4  2  0  0  0  0
  9  4  1  0  0  0  0
 10 18  2  0  0  0  0
 10  6  1  0  0  0  0
 11 19  1  0  0  0  0
 12  2  1  0  0  0  0
 13  3  1  0  0  0  0
 14 13  1  0  0  0  0
 15 14  1  0  0  0  0
 16 21  1  0  0  0  0
 16 20  2  0  0  0  0
 17  6  1  0  0  0  0
 18 15  1  0  0  0  0
 19 15  2  0  0  0  0
 20  8  1  0  0  0  0
 21  9  2  0  0  0  0
 22 16  1  0  0  0  0
 23 17  1  0  0  0  0
 24 17  1  0  0  0  0
M  END
>  <ID>
6816659

>  <Supplier>
ChemBridge

>  <clogP>
4.510000000000000e+000

>  <RB>
6

>  <tPSA>
7.391000000000000e+001

>  <Hacc>
4

>  <Hdon>
1

>  <LogSw>
-5.580000000000000e+000

>  <Group>
1

>  <Core>
314

$$$$
9076602
 OpenBabel03312015312D

 25 28  0  0  0  0  0  0  0  0999 V2000
    7.0375    1.8708    0.0000 C   0  0  0  0  0  0  0  0  0  0  0  0
    6.3917    1.4958    0.0000 N   0  0  0  0  0  0  0  0  0  0  0  0
    7.6875    1.4958    0.0000 C   0  0  0  0  0  0  0  0  0  0  0  0
    7.6875    0.7458    0.0000 N   0  0  0  0  0  0  0  0  0  0  0  0
    5.8292    1.9958    0.0000 N   0  0  0  0  0  0  0  0  0  0  0  0
    6.1375    2.6750    0.0000 N   0  0  0  0  0  0  0  0  0  0  0  0
    6.8792    2.6000    0.0000 N   0  0  0  0  0  0  0  0  0  0  0  0
    6.3917    0.7458    0.0000 C   0  0  0  0  0  0  0  0  0  0  0  0
    7.0375    0.3708    0.0000 C   0  0  0  0  0  0  0  0  0  0  0  0
    8.3375    1.8708    0.0000 N   0  0  0  0  0  0  0  0  0  0  0  0
   10.9375    0.3708    0.0000 C   0  0  0  0  0  0  0  0  0  0  0  0
   10.2875    0.7458    0.0000 C   0  0  0  0  0  0  0  0  0  0  0  0
   10.9375   -0.3792    0.0000 O   0  0  0  0  0  0  0  0  0  0  0  0
    8.9875    1.4958    0.0000 C   0  0  0  0  0  0  0  0  0  0  0  0
    9.6375    0.3708    0.0000 C   0  0  0  0  0  0  0  0  0  0  0  0
   10.2875    1.4958    0.0000 C   0  0  0  0  0  0  0  0  0  0  0  0
   11.5875    0.7458    0.0000 O   0  0  0  0  0  0  0  0  0  0  0  0
    9.6375    1.8708    0.0000 C   0  0  0  0  0  0  0  0  0  0  0  0
    8.9875    0.7458    0.0000 C   0  0  0  0  0  0  0  0  0  0  0  0
    5.7417    0.3708    0.0000 C   0  0  0  0  0  0  0  0  0  0  0  0
    7.0375   -0.3792    0.0000 C   0  0  0  0  0  0  0  0  0  0  0  0
   12.2375    0.3708    0.0000 C   0  0  0  0  0  0  0  0  0  0  0  0
    5.7417   -0.3792    0.0000 C   0  0  0  0  0  0  0  0  0  0  0  0
    6.3917   -0.7542    0.0000 C   0  0  0  0  0  0  0  0  0  0  0  0
   12.8792    0.7458    0.0000 C   0  0  0  0  0  0  0  0  0  0  0  0
  2  1  1  0  0  0  0
  3  1  1  0  0  0  0
  4  3  2  0  0  0  0
  5  2  1  0  0  0  0
  5  6  2  0  0  0  0
  6  7  1  0  0  0  0
  7  1  2  0  0  0  0
  8  2  1  0  0  0  0
  9  4  1  0  0  0  0
  9  8  1  0  0  0  0
 10  3  1  0  0  0  0
 11 12  1  0  0  0  0
 12 15  2  0  0  0  0
 12 16  1  0  0  0  0
 13 11  2  0  0  0  0
 14 10  1  0  0  0  0
 15 19  1  0  0  0  0
 16 18  2  0  0  0  0
 17 11  1  0  0  0  0
 18 14  1  0  0  0  0
 19 14  2  0  0  0  0
 20  8  2  0  0  0  0
 21  9  2  0  0  0  0
 22 17  1  0  0  0  0
 23 20  1  0  0  0  0
 24 21  1  0  0  0  0
 24 23  2  0  0  0  0
 25 22  1  0  0  0  0
M  END
>  <ID>
9076602

>  <Supplier>
ChemBridge

>  <clogP>
4.126999999999996e+000

>  <RB>
3

>  <tPSA>
9.430000000000000e+001

>  <Hacc>
6

>  <Hdon>
1

>  <LogSw>
-6.272000000000000e+000

>  <Group>
2

>  <Core>
412

$$$$
9154854
 OpenBabel03312015312D

 26 27  0  0  0  0  0  0  0  0999 V2000
    3.7292    3.3125    0.0000 C   0  0  0  0  0  0  0  0  0  0  0  0
    1.1042    2.6625    0.0000 C   0  0  0  0  0  0  0  0  0  0  0  0
    3.3542    2.6625    0.0000 C   0  0  0  0  0  0  0  0  0  0  0  0
    1.4792    2.0208    0.0000 N   0  0  0  0  0  0  0  0  0  0  0  0
    0.3542    2.6625    0.0000 C   0  0  0  0  0  0  0  0  0  0  0  0
    4.4792    3.3125    0.0000 N   0  0  0  0  0  0  0  0  0  0  0  0
    2.6042    2.6625    0.0000 C   0  0  0  0  0  0  0  0  0  0  0  0
    3.3542    3.9625    0.0000 O   0  0  0  0  0  0  0  0  0  0  0  0
    2.2292    2.0208    0.0000 C   0  0  0  0  0  0  0  0  0  0  0  0
    1.4792    3.3125    0.0000 O   0  0  0  0  0  0  0  0  0  0  0  0
   -0.0208    3.3125    0.0000 C   0  0  0  0  0  0  0  0  0  0  0  0
   -0.7708    3.3125    0.0000 C   0  0  0  0  0  0  0  0  0  0  0  0
    3.7292    2.0208    0.0000 C   0  0  0  0  0  0  0  0  0  0  0  0
   -1.1458    3.9625    0.0000 O   0  0  0  0  0  0  0  0  0  0  0  0
   -0.0208    2.0208    0.0000 C   0  0  0  0  0  0  0  0  0  0  0  0
    3.3542    1.3625    0.0000 C   0  0  0  0  0  0  0  0  0  0  0  0
   -0.7708    2.0208    0.0000 C   0  0  0  0  0  0  0  0  0  0  0  0
    4.8542    3.9625    0.0000 C   0  0  0  0  0  0  0  0  0  0  0  0
    4.8542    2.6625    0.0000 C   0  0  0  0  0  0  0  0  0  0  0  0
    2.6042    1.3625    0.0000 C   0  0  0  0  0  0  0  0  0  0  0  0
   -1.1458    2.6625    0.0000 C   0  0  0  0  0  0  0  0  0  0  0  0
   -1.8958    3.9625    0.0000 C   0  0  0  0  0  0  0  0  0  0  0  0
   -2.2708    4.6042    0.0000 C   0  0  0  0  0  0  0  0  0  0  0  0
    5.6042    2.6625    0.0000 C   0  0  0  0  0  0  0  0  0  0  0  0
    5.6042    3.9625    0.0000 C   0  0  0  0  0  0  0  0  0  0  0  0
   -3.0208    4.6042    0.0000 C   0  0  0  0  0  0  0  0  0  0  0  0
  2  4  1  0  0  0  0
  3  1  1  0  0  0  0
  4  9  1  0  0  0  0
  5  2  1  0  0  0  0
  6  1  1  0  0  0  0
  7  3  2  0  0  0  0
  8  1  2  0  0  0  0
  9  7  1  0  0  0  0
  9 20  2  0  0  0  0
 10  2  2  0  0  0  0
 11  5  1  0  0  0  0
 12 11  2  0  0  0  0
 13  3  1  0  0  0  0
 14 12  1  0  0  0  0
 15  5  2  0  0  0  0
 16 13  2  0  0  0  0
 17 15  1  0  0  0  0
 18  6  1  0  0  0  0
 19  6  1  0  0  0  0
 20 16  1  0  0  0  0
 21 17  2  0  0  0  0
 21 12  1  0  0  0  0
 22 14  1  0  0  0  0
 23 22  1  0  0  0  0
 24 19  1  0  0  0  0
 25 18  1  0  0  0  0
 26 23  1  0  0  0  0
M  END
>  <ID>
9154854

>  <Supplier>
ChemBridge

>  <clogP>
3.822000000000000e+000

>  <RB>
4

>  <tPSA>
5.863999999999997e+001

>  <Hacc>
3

>  <Hdon>
1

>  <LogSw>
-5.048000000000000e+000

>  <Group>
2

$$$$
6587613
 OpenBabel03312015312D

 29 33  0  0  0  0  0  0  0  0999 V2000
    5.0042   -1.1917    0.0000 N   0  0  0  0  0  0  0  0  0  0  0  0
    5.6667   -0.8167    0.0000 C   0  0  0  0  0  0  0  0  0  0  0  0
    5.1667   -1.9417    0.0000 C   0  0  0  0  0  0  0  0  0  0  0  0
    5.9250   -2.0250    0.0000 C   0  0  0  0  0  0  0  0  0  0  0  0
    5.6667   -0.0542    0.0000 N   0  0  0  0  0  0  0  0  0  0  0  0
    6.2375   -1.3250    0.0000 S   0  0  0  0  0  0  0  0  0  0  0  0
    4.3542   -0.8167    0.0000 C   0  0  0  0  0  0  0  0  0  0  0  0
    4.3542   -0.0542    0.0000 C   0  0  0  0  0  0  0  0  0  0  0  0
    6.2917   -2.6750    0.0000 C   0  0  0  0  0  0  0  0  0  0  0  0
    4.6625   -2.4917    0.0000 O   0  0  0  0  0  0  0  0  0  0  0  0
    7.6417   -2.6792    0.0000 C   0  0  0  0  0  0  0  0  0  0  0  0
    9.1625   -1.3875    0.0000 O   0  0  0  0  0  0  0  0  0  0  0  0
    8.0250   -2.0250    0.0000 C   0  0  0  0  0  0  0  0  0  0  0  0
    8.7792   -2.0292    0.0000 C   0  0  0  0  0  0  0  0  0  0  0  0
    7.6667   -0.0792    0.0000 C   0  0  0  0  0  0  0  0  0  0  0  0
    8.7917   -0.7375    0.0000 C   0  0  0  0  0  0  0  0  0  0  0  0
    8.0417   -0.7292    0.0000 C   0  0  0  0  0  0  0  0  0  0  0  0
    6.9167   -0.0667    0.0000 C   0  0  0  0  0  0  0  0  0  0  0  0
    3.7042   -1.1875    0.0000 C   0  0  0  0  0  0  0  0  0  0  0  0
    3.7042    0.3208    0.0000 C   0  0  0  0  0  0  0  0  0  0  0  0
    8.7667   -3.3292    0.0000 C   0  0  0  0  0  0  0  0  0  0  0  0
    6.9042   -1.3667    0.0000 C   0  0  0  0  0  0  0  0  0  0  0  0
    8.0167   -3.3250    0.0000 C   0  0  0  0  0  0  0  0  0  0  0  0
    9.1500   -2.6875    0.0000 C   0  0  0  0  0  0  0  0  0  0  0  0
    7.6542   -1.3792    0.0000 C   0  0  0  0  0  0  0  0  0  0  0  0
    6.5375   -0.7167    0.0000 C   0  0  0  0  0  0  0  0  0  0  0  0
    6.5542    0.5833    0.0000 C   0  0  0  0  0  0  0  0  0  0  0  0
    3.0542   -0.8125    0.0000 C   0  0  0  0  0  0  0  0  0  0  0  0
    3.0542   -0.0625    0.0000 C   0  0  0  0  0  0  0  0  0  0  0  0
  2  1  1  0  0  0  0
  3  1  1  0  0  0  0
  4  3  1  0  0  0  0
  5  2  2  0  0  0  0
  5  8  1  0  0  0  0
  6  2  1  0  0  0  0
  6  4  1  0  0  0  0
  7  1  1  0  0  0  0
  8  7  1  0  0  0  0
  9  4  2  0  0  0  0
 10  3  2  0  0  0  0
 11  9  1  0  0  0  0
 12 14  1  0  0  0  0
 13 11  2  0  0  0  0
 14 13  1  0  0  0  0
 14 24  2  0  0  0  0
 15 17  2  0  0  0  0
 16 12  1  0  0  0  0
 17 16  1  0  0  0  0
 18 15  1  0  0  0  0
 18 26  2  0  0  0  0
 19  7  2  0  0  0  0
 20  8  2  0  0  0  0
 21 23  2  0  0  0  0
 22 25  2  0  0  0  0
 23 11  1  0  0  0  0
 24 21  1  0  0  0  0
 25 17  1  0  0  0  0
 26 22  1  0  0  0  0
 27 18  1  0  0  0  0
 28 19  1  0  0  0  0
 29 28  2  0  0  0  0
 29 20  1  0  0  0  0
M  END
>  <ID>
6587613

>  <Supplier>
ChemBridge

>  <clogP>
4.859999999999999e+000

>  <RB>
4

>  <tPSA>
4.359999999999999e+001

>  <Hacc>
4

>  <Hdon>
0

>  <LogSw>
-6.255000000000000e+000

>  <Group>
3

>  <Core>
032

$$$$
7996016
 OpenBabel03312015312D

 23 24  0  0  0  0  0  0  0  0999 V2000
    5.5042    2.6333    0.0000 S   0  0  0  0  0  0  0  0  0  0  0  0
    4.8542    2.2583    0.0000 N   0  0  0  0  0  0  0  0  0  0  0  0
    4.2042    2.6333    0.0000 C   0  0  0  0  0  0  0  0  0  0  0  0
    3.5542    2.2583    0.0000 C   0  0  0  0  0  0  0  0  0  0  0  0
    5.3125    3.3583    0.0000 O   0  0  0  0  0  0  0  0  0  0  0  0
    5.8250    1.9583    0.0000 O   0  0  0  0  0  0  0  0  0  0  0  0
    2.9042    2.6333    0.0000 N   0  0  0  0  0  0  0  0  0  0  0  0
    3.5542    1.5083    0.0000 O   0  0  0  0  0  0  0  0  0  0  0  0
    4.8542    1.5083    0.0000 C   0  0  0  0  0  0  0  0  0  0  0  0
    6.2125    2.8958    0.0000 C   0  0  0  0  0  0  0  0  0  0  0  0
    2.2542    2.2583    0.0000 C   0  0  0  0  0  0  0  0  0  0  0  0
    4.2042    1.1333    0.0000 C   0  0  0  0  0  0  0  0  0  0  0  0
    5.5042    1.1333    0.0000 C   0  0  0  0  0  0  0  0  0  0  0  0
    1.6625    2.7208    0.0000 C   0  0  0  0  0  0  0  0  0  0  0  0
    2.3542    1.5208    0.0000 C   0  0  0  0  0  0  0  0  0  0  0  0
    5.5042    0.3833    0.0000 C   0  0  0  0  0  0  0  0  0  0  0  0
    4.2042    0.3833    0.0000 C   0  0  0  0  0  0  0  0  0  0  0  0
    1.9000    0.9208    0.0000 C   0  0  0  0  0  0  0  0  0  0  0  0
    0.9167    2.6208    0.0000 C   0  0  0  0  0  0  0  0  0  0  0  0
    0.5625    1.2833    0.0000 C   0  0  0  0  0  0  0  0  0  0  0  0
    1.1542    0.8208    0.0000 C   0  0  0  0  0  0  0  0  0  0  0  0
    4.8542    0.0083    0.0000 C   0  0  0  0  0  0  0  0  0  0  0  0
    0.4625    2.0250    0.0000 C   0  0  0  0  0  0  0  0  0  0  0  0
  2  1  1  0  0  0  0
  3  2  1  0  0  0  0
  4  3  1  0  0  0  0
  5  1  2  0  0  0  0
  6  1  2  0  0  0  0
  7  4  1  0  0  0  0
  8  4  2  0  0  0  0
  9  2  1  0  0  0  0
 10  1  1  0  0  0  0
 11  7  1  0  0  0  0
 12  9  1  0  0  0  0
 13  9  1  0  0  0  0
 14 11  1  0  0  0  0
 15 11  1  0  0  0  0
 16 13  1  0  0  0  0
 17 12  1  0  0  0  0
 17 22  1  0  0  0  0
 18 15  1  0  0  0  0
 19 14  1  0  0  0  0
 20 21  1  0  0  0  0
 20 23  1  0  0  0  0
 21 18  1  0  0  0  0
 22 16  1  0  0  0  0
 23 19  1  0  0  0  0
M  END
>  <ID>
7996016

>  <Supplier>
ChemBridge

>  <clogP>
4.090000000000000e+000

>  <RB>
4

>  <tPSA>
6.647999999999998e+001

>  <Hacc>
4

>  <Hdon>
1

>  <LogSw>
-5.205000000000000e+000

>  <Group>
3

>  <Core>
084

$$$$
9081958
 OpenBabel03312015312D

 16 17  0  0  0  0  0  0  0  0999 V2000
    5.4000    2.4458    0.0000 N   0  0  0  0  0  0  0  0  0  0  0  0
    4.9542    1.8375    0.0000 C   0  0  0  0  0  0  0  0  0  0  0  0
    5.4000    1.2333    0.0000 N   0  0  0  0  0  0  0  0  0  0  0  0
    6.1125    1.4625    0.0000 N   0  0  0  0  0  0  0  0  0  0  0  0
    6.1125    2.2125    0.0000 C   0  0  0  0  0  0  0  0  0  0  0  0
    4.2042    1.8375    0.0000 N   0  0  0  0  0  0  0  0  0  0  0  0
    1.5792    1.1958    0.0000 C   0  0  0  0  0  0  0  0  0  0  0  0
    1.9542    0.5458    0.0000 C   0  0  0  0  0  0  0  0  0  0  0  0
    1.9542    1.8375    0.0000 C   0  0  0  0  0  0  0  0  0  0  0  0
    3.8292    1.1958    0.0000 C   0  0  0  0  0  0  0  0  0  0  0  0
    3.0792    1.1958    0.0000 C   0  0  0  0  0  0  0  0  0  0  0  0
    0.8292    1.1958    0.0000 C   0  0  0  0  0  0  0  0  0  0  0  0
    2.7042    0.5458    0.0000 C   0  0  0  0  0  0  0  0  0  0  0  0
    2.7042    1.8375    0.0000 C   0  0  0  0  0  0  0  0  0  0  0  0
    0.4542    1.8375    0.0000 C   0  0  0  0  0  0  0  0  0  0  0  0
    0.4542    0.5458    0.0000 C   0  0  0  0  0  0  0  0  0  0  0  0
  2  1  1  0  0  0  0
  3  2  2  0  0  0  0
  3  4  1  0  0  0  0
  4  5  1  0  0  0  0
  5  1  2  0  0  0  0
  6  2  1  0  0  0  0
  7  9  1  0  0  0  0
  7  8  2  0  0  0  0
  8 13  1  0  0  0  0
  9 14  2  0  0  0  0
 10  6  1  0  0  0  0
 11 10  1  0  0  0  0
 12  7  1  0  0  0  0
 13 11  2  0  0  0  0
 14 11  1  0  0  0  0
 15 12  1  0  0  0  0
 16 12  1  0  0  0  0
M  END
>  <ID>
9081958

>  <Supplier>
ChemBridge

>  <clogP>
3.208000000000000e+000

>  <RB>
3

>  <tPSA>
5.359999999999999e+001

>  <Hacc>
2

>  <Hdon>
2

>  <LogSw>
-3.518000000000000e+000

>  <Group>
3

$$$$
7996012
 OpenBabel03312015312D

 20 21  0  0  0  0  0  0  0  0999 V2000
    6.3625    2.2083    0.0000 C   0  0  0  0  0  0  0  0  0  0  0  0
    5.7125    2.5833    0.0000 N   0  0  0  0  0  0  0  0  0  0  0  0
    6.3625    1.4500    0.0000 O   0  0  0  0  0  0  0  0  0  0  0  0
    7.0125    2.5833    0.0000 C   0  0  0  0  0  0  0  0  0  0  0  0
    3.1167    1.0750    0.0000 O   0  0  0  0  0  0  0  0  0  0  0  0
    5.0625    2.2083    0.0000 C   0  0  0  0  0  0  0  0  0  0  0  0
    7.6625    2.2083    0.0000 N   0  0  0  0  0  0  0  0  0  0  0  0
    3.7667    1.4500    0.0000 C   0  0  0  0  0  0  0  0  0  0  0  0
    2.4667    1.4500    0.0000 C   0  0  0  0  0  0  0  0  0  0  0  0
    5.0625    1.4500    0.0000 C   0  0  0  0  0  0  0  0  0  0  0  0
    4.4167    2.5833    0.0000 C   0  0  0  0  0  0  0  0  0  0  0  0
    3.7667    2.2083    0.0000 C   0  0  0  0  0  0  0  0  0  0  0  0
    4.4167    1.0750    0.0000 C   0  0  0  0  0  0  0  0  0  0  0  0
    7.6625    1.4500    0.0000 C   0  0  0  0  0  0  0  0  0  0  0  0
    8.3125    2.5833    0.0000 C   0  0  0  0  0  0  0  0  0  0  0  0
    1.8167    1.0750    0.0000 C   0  0  0  0  0  0  0  0  0  0  0  0
    2.4667    2.2083    0.0000 C   0  0  0  0  0  0  0  0  0  0  0  0
    1.8167    2.5833    0.0000 C   0  0  0  0  0  0  0  0  0  0  0  0
    1.1667    1.4500    0.0000 C   0  0  0  0  0  0  0  0  0  0  0  0
    1.1667    2.2083    0.0000 C   0  0  0  0  0  0  0  0  0  0  0  0
  2  1  1  0  0  0  0
  3  1  2  0  0  0  0
  4  1  1  0  0  0  0
  5  8  1  0  0  0  0
  6  2  1  0  0  0  0
  7  4  1  0  0  0  0
  8 13  1  0  0  0  0
  9  5  1  0  0  0  0
 10  6  1  0  0  0  0
 11  6  2  0  0  0  0
 12 11  1  0  0  0  0
 12  8  2  0  0  0  0
 13 10  2  0  0  0  0
 14  7  1  0  0  0  0
 15  7  1  0  0  0  0
 16  9  2  0  0  0  0
 17  9  1  0  0  0  0
 18 17  2  0  0  0  0
 18 20  1  0  0  0  0
 19 16  1  0  0  0  0
 20 19  2  0  0  0  0
M  END
>  <ID>
7996012

>  <Supplier>
ChemBridge

>  <clogP>
-1.900000000000000e-001

>  <RB>
4

>  <tPSA>
4.156999999999997e+001

>  <Hacc>
3

>  <Hdon>
1

>  <LogSw>
-2.320000000000000e+000

>  <Group>
2

$$$$
6453920
 OpenBabel03312015312D

 21 22  0  0  0  0  0  0  0  0999 V2000
   -4.2333    0.8208    0.0000 C   0  0  0  0  0  0  0  0  0  0  0  0
   -4.2333    1.4958    0.0000 C   0  0  0  0  0  0  0  0  0  0  0  0
   -3.6625    0.4833    0.0000 C   0  0  0  0  0  0  0  0  0  0  0  0
   -3.6625    1.8333    0.0000 C   0  0  0  0  0  0  0  0  0  0  0  0
   -3.0833    0.8208    0.0000 C   0  0  0  0  0  0  0  0  0  0  0  0
   -3.0833    1.4958    0.0000 C   0  0  0  0  0  0  0  0  0  0  0  0
    0.3000    2.4125    0.0000 C   0  0  0  0  0  0  0  0  0  0  0  0
    0.1167    1.7000    0.0000 C   0  0  0  0  0  0  0  0  0  0  0  0
   -4.6625    0.5708    0.0000 Cl  0  0  0  0  0  0  0  0  0  0  0  0
    0.0500    2.6958    0.0000 O   0  0  0  0  0  0  0  0  0  0  0  0
   -2.3625    1.8708    0.0000 O   0  0  0  0  0  0  0  0  0  0  0  0
   -0.5000    1.5458    0.0000 O   0  0  0  0  0  0  0  0  0  0  0  0
   -4.6833    1.7000    0.0000 C   0  0  0  0  0  0  0  0  0  0  0  0
   -3.6333    0.1000    0.0000 C   0  0  0  0  0  0  0  0  0  0  0  0
    0.6375    1.1958    0.0000 C   0  0  0  0  0  0  0  0  0  0  0  0
    1.0042    2.6000    0.0000 C   0  0  0  0  0  0  0  0  0  0  0  0
   -0.8625    1.8958    0.0000 C   0  0  0  0  0  0  0  0  0  0  0  0
   -1.6625    1.4458    0.0000 C   0  0  0  0  0  0  0  0  0  0  0  0
    0.2375    3.1458    0.0000 C   0  0  0  0  0  0  0  0  0  0  0  0
    1.5292    2.0833    0.0000 C   0  0  0  0  0  0  0  0  0  0  0  0
    1.3500    1.3833    0.0000 C   0  0  0  0  0  0  0  0  0  0  0  0
  2  1  1  0  0  0  0
  3  1  2  0  0  0  0
  4  2  2  0  0  0  0
  5  3  1  0  0  0  0
  6  5  2  0  0  0  0
  6  4  1  0  0  0  0
  7  8  2  0  0  0  0
  8 12  1  0  0  0  0
  9  1  1  0  0  0  0
 10  7  1  0  0  0  0
 11  6  1  0  0  0  0
 12 17  1  0  0  0  0
 13  2  1  0  0  0  0
 14  3  1  0  0  0  0
 15  8  1  0  0  0  0
 16  7  1  0  0  0  0
 17 18  1  0  0  0  0
 18 11  1  0  0  0  0
 19 10  1  0  0  0  0
 20 21  1  0  0  0  0
 20 16  2  0  0  0  0
 21 15  2  0  0  0  0
M  END
>  <ID>
6453920

>  <Supplier>
ChemBridge

>  <clogP>
5.410000000000000e+000

>  <RB>
5

>  <tPSA>
2.769000000000000e+001

>  <Hacc>
3

>  <Hdon>
0

>  <LogSw>
-6.058000000000000e+000

>  <Group>
1

>  <Core>
319

$$$$
7996010
 OpenBabel03312015312D

 22 24  0  0  0  0  0  0  0  0999 V2000
    4.6875    1.4250    0.0000 N   0  0  0  0  0  0  0  0  0  0  0  0
    5.1250    2.0333    0.0000 C   0  0  0  0  0  0  0  0  0  0  0  0
    4.6875    2.6458    0.0000 N   0  0  0  0  0  0  0  0  0  0  0  0
    3.9667    1.6583    0.0000 C   0  0  0  0  0  0  0  0  0  0  0  0
    3.9667    2.4083    0.0000 O   0  0  0  0  0  0  0  0  0  0  0  0
    5.8750    2.0333    0.0000 C   0  0  0  0  0  0  0  0  0  0  0  0
    2.6792    1.5208    0.0000 O   0  0  0  0  0  0  0  0  0  0  0  0
    6.2500    1.3833    0.0000 C   0  0  0  0  0  0  0  0  0  0  0  0
    2.0667    1.0833    0.0000 C   0  0  0  0  0  0  0  0  0  0  0  0
    3.3667    1.2208    0.0000 C   0  0  0  0  0  0  0  0  0  0  0  0
    1.3875    1.3875    0.0000 C   0  0  0  0  0  0  0  0  0  0  0  0
    7.0000    1.3833    0.0000 C   0  0  0  0  0  0  0  0  0  0  0  0
    7.3750    0.7333    0.0000 O   0  0  0  0  0  0  0  0  0  0  0  0
    6.2500    2.6833    0.0000 C   0  0  0  0  0  0  0  0  0  0  0  0
    7.0000    2.6833    0.0000 C   0  0  0  0  0  0  0  0  0  0  0  0
    2.1542    0.3333    0.0000 C   0  0  0  0  0  0  0  0  0  0  0  0
    1.3125    2.1333    0.0000 C   0  0  0  0  0  0  0  0  0  0  0  0
    0.7792    0.9458    0.0000 C   0  0  0  0  0  0  0  0  0  0  0  0
    7.3750    2.0333    0.0000 C   0  0  0  0  0  0  0  0  0  0  0  0
    8.1250    0.7333    0.0000 C   0  0  0  0  0  0  0  0  0  0  0  0
    0.8625    0.2000    0.0000 C   0  0  0  0  0  0  0  0  0  0  0  0
    1.5417   -0.1042    0.0000 C   0  0  0  0  0  0  0  0  0  0  0  0
  2  1  1  0  0  0  0
  3  2  2  0  0  0  0
  4  1  2  0  0  0  0
  5  4  1  0  0  0  0
  5  3  1  0  0  0  0
  6  2  1  0  0  0  0
  7 10  1  0  0  0  0
  8  6  1  0  0  0  0
  9  7  1  0  0  0  0
 10  4  1  0  0  0  0
 11  9  1  0  0  0  0
 12  8  2  0  0  0  0
 13 12  1  0  0  0  0
 14  6  2  0  0  0  0
 15 14  1  0  0  0  0
 16  9  2  0  0  0  0
 17 11  1  0  0  0  0
 18 11  2  0  0  0  0
 18 21  1  0  0  0  0
 19 15  2  0  0  0  0
 19 12  1  0  0  0  0
 20 13  1  0  0  0  0
 21 22  2  0  0  0  0
 22 16  1  0  0  0  0
M  END
>  <ID>
7996010

>  <Supplier>
ChemBridge

>  <clogP>
3.820000000000000e+000

>  <RB>
4

>  <tPSA>
5.738000000000000e+001

>  <Hacc>
5

>  <Hdon>
0

>  <LogSw>
-4.623999999999998e+000

>  <Group>
2

>  <Core>
201

$$$$
5938227
 OpenBabel03312015312D

 18 19  0  0  0  0  0  0  0  0999 V2000
   -3.1000    0.1000    0.0000 N   0  0  0  0  0  0  0  0  0  0  0  0
   -3.6000   -1.1375    0.0000 C   0  0  0  0  0  0  0  0  0  0  0  0
   -4.1000    0.9625    0.0000 C   0  0  0  0  0  0  0  0  0  0  0  0
   -1.8458    0.5458    0.0000 N   0  0  0  0  0  0  0  0  0  0  0  0
   -4.9458   -1.0167    0.0000 S   0  0  0  0  0  0  0  0  0  0  0  0
   -5.2458    0.2625    0.0000 C   0  0  0  0  0  0  0  0  0  0  0  0
   -2.9000   -2.3000    0.0000 S   0  0  0  0  0  0  0  0  0  0  0  0
   -0.8458   -0.3375    0.0000 C   0  0  0  0  0  0  0  0  0  0  0  0
    1.4375   -0.7792    0.0000 C   0  0  0  0  0  0  0  0  0  0  0  0
    0.4167    0.1000    0.0000 C   0  0  0  0  0  0  0  0  0  0  0  0
   -4.0000    2.3000    0.0000 O   0  0  0  0  0  0  0  0  0  0  0  0
    2.7000   -0.3167    0.0000 C   0  0  0  0  0  0  0  0  0  0  0  0
    0.6792    1.4208    0.0000 C   0  0  0  0  0  0  0  0  0  0  0  0
    3.7167   -1.1792    0.0000 C   0  0  0  0  0  0  0  0  0  0  0  0
    2.9375    1.0000    0.0000 C   0  0  0  0  0  0  0  0  0  0  0  0
    4.9792   -0.7375    0.0000 C   0  0  0  0  0  0  0  0  0  0  0  0
    4.1792    1.4625    0.0000 C   0  0  0  0  0  0  0  0  0  0  0  0
    5.2167    0.6000    0.0000 C   0  0  0  0  0  0  0  0  0  0  0  0
  2  1  1  0  0  0  0
  3  1  1  0  0  0  0
  4  1  1  0  0  0  0
  5  2  1  0  0  0  0
  6  3  1  0  0  0  0
  6  5  1  0  0  0  0
  7  2  2  0  0  0  0
  8  4  2  0  0  0  0
  9 10  2  0  0  0  0
 10  8  1  0  0  0  0
 11  3  2  0  0  0  0
 12  9  1  0  0  0  0
 13 10  1  0  0  0  0
 14 12  2  0  0  0  0
 15 12  1  0  0  0  0
 16 14  1  0  0  0  0
 17 15  2  0  0  0  0
 18 17  1  0  0  0  0
 18 16  2  0  0  0  0
M  END
>  <ID>
5938227

>  <Supplier>
ChemBridge

>  <clogP>
3.290000000000000e+000

>  <RB>
3

>  <tPSA>
3.267000000000000e+001

>  <Hacc>
2

>  <Hdon>
0

>  <LogSw>
-4.026000000000000e+000

>  <Group>
3

$$$$
5404875
 OpenBabel03312015312D

 21 22  0  0  0  0  0  0  0  0999 V2000
    1.5375   -0.0542    0.0000 C   0  0  0  0  0  0  0  0  0  0  0  0
    0.8000    0.3625    0.0000 C   0  0  0  0  0  0  0  0  0  0  0  0
   -2.8458   -0.0792    0.0000 C   0  0  0  0  0  0  0  0  0  0  0  0
   -2.1208    0.3625    0.0000 C   0  0  0  0  0  0  0  0  0  0  0  0
    2.2667    0.3625    0.0000 C   0  0  0  0  0  0  0  0  0  0  0  0
    0.8000    1.2000    0.0000 O   0  0  0  0  0  0  0  0  0  0  0  0
   -1.4000   -0.0792    0.0000 C   0  0  0  0  0  0  0  0  0  0  0  0
    0.0792   -0.0542    0.0000 N   0  0  0  0  0  0  0  0  0  0  0  0
   -2.8458   -0.9167    0.0000 O   0  0  0  0  0  0  0  0  0  0  0  0
   -3.5625    0.3625    0.0000 C   0  0  0  0  0  0  0  0  0  0  0  0
   -0.6625    0.3625    0.0000 N   0  0  0  0  0  0  0  0  0  0  0  0
    2.2667    1.2000    0.0000 O   0  0  0  0  0  0  0  0  0  0  0  0
    1.5375   -0.9000    0.0000 C   0  0  0  0  0  0  0  0  0  0  0  0
    3.0000   -0.0542    0.0000 C   0  0  0  0  0  0  0  0  0  0  0  0
   -4.3000   -0.0792    0.0000 C   0  0  0  0  0  0  0  0  0  0  0  0
   -3.5625    1.2000    0.0000 C   0  0  0  0  0  0  0  0  0  0  0  0
    2.2667   -1.3167    0.0000 C   0  0  0  0  0  0  0  0  0  0  0  0
   -4.2833    1.6208    0.0000 C   0  0  0  0  0  0  0  0  0  0  0  0
    3.0000   -0.9000    0.0000 C   0  0  0  0  0  0  0  0  0  0  0  0
   -5.0208    0.3625    0.0000 C   0  0  0  0  0  0  0  0  0  0  0  0
   -5.0000    1.2000    0.0000 C   0  0  0  0  0  0  0  0  0  0  0  0
  2  1  1  0  0  0  0
  3  4  1  0  0  0  0
  4  7  2  0  0  0  0
  5  1  1  0  0  0  0
  6  2  2  0  0  0  0
  7 11  1  0  0  0  0
  8  2  1  0  0  0  0
  9  3  2  0  0  0  0
 10  3  1  0  0  0  0
 11  8  1  0  0  0  0
 12  5  1  0  0  0  0
 13  1  2  0  0  0  0
 14  5  2  0  0  0  0
 15 10  1  0  0  0  0
 16 10  2  0  0  0  0
 17 13  1  0  0  0  0
 18 16  1  0  0  0  0
 19 17  2  0  0  0  0
 19 14  1  0  0  0  0
 20 15  2  0  0  0  0
 21 18  2  0  0  0  0
 21 20  1  0  0  0  0
M  END
>  <ID>
5404875

>  <Supplier>
ChemBridge

>  <clogP>
2.640000000000000e+000

>  <RB>
5

>  <tPSA>
7.843000000000001e+001

>  <Hacc>
3

>  <Hdon>
3

>  <LogSw>
-2.934000000000000e+000

>  <Group>
1

>  <Core>
207

$$$$
5125564
 OpenBabel03312015312D

 14 15  0  0  0  0  0  0  0  0999 V2000
   -0.5708    1.3833    0.0000 C   0  0  0  0  0  0  0  0  0  0  0  0
   -0.5708    2.0458    0.0000 N   0  0  0  0  0  0  0  0  0  0  0  0
   -1.1500    1.0500    0.0000 N   0  0  0  0  0  0  0  0  0  0  0  0
   -1.7333    2.0458    0.0000 C   0  0  0  0  0  0  0  0  0  0  0  0
   -1.7333    1.3833    0.0000 C   0  0  0  0  0  0  0  0  0  0  0  0
    0.0500    1.0333    0.0000 S   0  0  0  0  0  0  0  0  0  0  0  0
   -2.3125    2.3708    0.0000 C   0  0  0  0  0  0  0  0  0  0  0  0
   -2.3125    1.0500    0.0000 C   0  0  0  0  0  0  0  0  0  0  0  0
    0.6542    1.3958    0.0000 C   0  0  0  0  0  0  0  0  0  0  0  0
    1.2667    1.0500    0.0000 C   0  0  0  0  0  0  0  0  0  0  0  0
    1.8667    1.4125    0.0000 C   0  0  0  0  0  0  0  0  0  0  0  0
   -2.8958    2.0458    0.0000 C   0  0  0  0  0  0  0  0  0  0  0  0
   -2.8958    1.3833    0.0000 C   0  0  0  0  0  0  0  0  0  0  0  0
    1.8542    2.1125    0.0000 C   0  0  0  0  0  0  0  0  0  0  0  0
  2  1  2  0  0  0  0
  3  1  1  0  0  0  0
  4  2  1  0  0  0  0
  5  3  1  0  0  0  0
  5  4  2  0  0  0  0
  6  1  1  0  0  0  0
  7  4  1  0  0  0  0
  8  5  1  0  0  0  0
  9  6  1  0  0  0  0
 10  9  1  0  0  0  0
 11 10  1  0  0  0  0
 12  7  2  0  0  0  0
 13  8  2  0  0  0  0
 13 12  1  0  0  0  0
 14 11  1  0  0  0  0
M  END
>  <ID>
5125564

>  <Supplier>
ChemBridge

>  <clogP>
4.109999999999999e+000

>  <RB>
2

>  <tPSA>
2.868000000000000e+001

>  <Hacc>
1

>  <Hdon>
1

>  <LogSw>
-4.216000000000000e+000

>  <Group>
2

>  <Core>
031

$$$$
5125563
 OpenBabel03312015312D

 14 15  0  0  0  0  0  0  0  0999 V2000
   -0.5708    1.3833    0.0000 C   0  0  0  0  0  0  0  0  0  0  0  0
   -0.5708    2.0458    0.0000 N   0  0  0  0  0  0  0  0  0  0  0  0
   -1.1500    1.0500    0.0000 N   0  0  0  0  0  0  0  0  0  0  0  0
   -1.7333    2.0458    0.0000 C   0  0  0  0  0  0  0  0  0  0  0  0
   -1.7333    1.3833    0.0000 C   0  0  0  0  0  0  0  0  0  0  0  0
    0.0500    1.0333    0.0000 S   0  0  0  0  0  0  0  0  0  0  0  0
    1.2667    1.0500    0.0000 C   0  0  0  0  0  0  0  0  0  0  0  0
    1.2792    0.3500    0.0000 C   0  0  0  0  0  0  0  0  0  0  0  0
    0.6542    1.3958    0.0000 C   0  0  0  0  0  0  0  0  0  0  0  0
    1.8667    1.4125    0.0000 Br  0  0  0  0  0  0  0  0  0  0  0  0
   -2.3125    2.3708    0.0000 C   0  0  0  0  0  0  0  0  0  0  0  0
   -2.3125    1.0500    0.0000 C   0  0  0  0  0  0  0  0  0  0  0  0
   -2.8958    1.3833    0.0000 C   0  0  0  0  0  0  0  0  0  0  0  0
   -2.8958    2.0458    0.0000 C   0  0  0  0  0  0  0  0  0  0  0  0
  2  1  2  0  0  0  0
  3  1  1  0  0  0  0
  4  2  1  0  0  0  0
  5  3  1  0  0  0  0
  5  4  2  0  0  0  0
  6  1  1  0  0  0  0
  7  9  1  0  0  0  0
  8  7  2  0  0  0  0
  9  6  1  0  0  0  0
 10  7  1  0  0  0  0
 11  4  1  0  0  0  0
 12  5  1  0  0  0  0
 13 12  2  0  0  0  0
 13 14  1  0  0  0  0
 14 11  2  0  0  0  0
M  END
>  <ID>
5125563

>  <Supplier>
ChemBridge

>  <clogP>
3.990000000000000e+000

>  <RB>
3

>  <tPSA>
2.868000000000000e+001

>  <Hacc>
1

>  <Hdon>
1

>  <LogSw>
-4.571000000000002e+000

>  <Group>
3

>  <Core>
031

$$$$
5404872
 OpenBabel03312015312D

 18 19  0  0  0  0  0  0  0  0999 V2000
   -2.1208    0.3625    0.0000 C   0  0  0  0  0  0  0  0  0  0  0  0
   -2.8458   -0.0792    0.0000 C   0  0  0  0  0  0  0  0  0  0  0  0
   -1.4000   -0.0792    0.0000 C   0  0  0  0  0  0  0  0  0  0  0  0
   -2.8458   -0.9167    0.0000 O   0  0  0  0  0  0  0  0  0  0  0  0
   -3.5625    0.3625    0.0000 C   0  0  0  0  0  0  0  0  0  0  0  0
   -0.6625    0.3625    0.0000 N   0  0  0  0  0  0  0  0  0  0  0  0
    0.0792   -0.0542    0.0000 C   0  0  0  0  0  0  0  0  0  0  0  0
    1.5375   -0.9000    0.0000 C   0  0  0  0  0  0  0  0  0  0  0  0
    2.2792   -1.3042    0.0000 Br  0  0  0  0  0  0  0  0  0  0  0  0
    0.8000    0.3625    0.0000 C   0  0  0  0  0  0  0  0  0  0  0  0
    0.0667   -0.9042    0.0000 C   0  0  0  0  0  0  0  0  0  0  0  0
    1.5375   -0.0542    0.0000 C   0  0  0  0  0  0  0  0  0  0  0  0
    0.8042   -1.3292    0.0000 C   0  0  0  0  0  0  0  0  0  0  0  0
   -3.5625    1.2000    0.0000 C   0  0  0  0  0  0  0  0  0  0  0  0
   -4.3000   -0.0792    0.0000 C   0  0  0  0  0  0  0  0  0  0  0  0
   -4.2833    1.6208    0.0000 C   0  0  0  0  0  0  0  0  0  0  0  0
   -5.0208    0.3625    0.0000 C   0  0  0  0  0  0  0  0  0  0  0  0
   -5.0000    1.2000    0.0000 C   0  0  0  0  0  0  0  0  0  0  0  0
  2  1  1  0  0  0  0
  3  1  2  0  0  0  0
  4  2  2  0  0  0  0
  5  2  1  0  0  0  0
  6  3  1  0  0  0  0
  7  6  1  0  0  0  0
  8 13  1  0  0  0  0
  8 12  2  0  0  0  0
  9  8  1  0  0  0  0
 10  7  2  0  0  0  0
 11  7  1  0  0  0  0
 12 10  1  0  0  0  0
 13 11  2  0  0  0  0
 14  5  2  0  0  0  0
 15  5  1  0  0  0  0
 16 14  1  0  0  0  0
 17 15  2  0  0  0  0
 18 17  1  0  0  0  0
 18 16  2  0  0  0  0
M  END
>  <ID>
5404872

>  <Supplier>
ChemBridge

>  <clogP>
4.670000000000000e+000

>  <RB>
4

>  <tPSA>
2.910000000000000e+001

>  <Hacc>
1

>  <Hdon>
1

>  <LogSw>
-5.392000000000000e+000

>  <Group>
1

>  <Core>
207

$$$$
5404879
 OpenBabel03312015312D

 19 20  0  0  0  0  0  0  0  0999 V2000
   -2.1208    0.3625    0.0000 C   0  0  0  0  0  0  0  0  0  0  0  0
   -2.8458   -0.0792    0.0000 C   0  0  0  0  0  0  0  0  0  0  0  0
   -1.4000   -0.0792    0.0000 C   0  0  0  0  0  0  0  0  0  0  0  0
   -3.5625    0.3625    0.0000 C   0  0  0  0  0  0  0  0  0  0  0  0
   -2.8458   -0.9167    0.0000 O   0  0  0  0  0  0  0  0  0  0  0  0
   -0.6625    0.3625    0.0000 N   0  0  0  0  0  0  0  0  0  0  0  0
   -4.3000   -0.0792    0.0000 C   0  0  0  0  0  0  0  0  0  0  0  0
   -3.5625    1.2000    0.0000 C   0  0  0  0  0  0  0  0  0  0  0  0
    0.1000   -0.0542    0.0000 C   0  0  0  0  0  0  0  0  0  0  0  0
   -5.0000    1.2000    0.0000 C   0  0  0  0  0  0  0  0  0  0  0  0
    1.5792    0.8000    0.0000 C   0  0  0  0  0  0  0  0  0  0  0  0
   -5.0208    0.3625    0.0000 C   0  0  0  0  0  0  0  0  0  0  0  0
   -4.2833    1.6208    0.0000 C   0  0  0  0  0  0  0  0  0  0  0  0
   -5.7333    1.6125    0.0000 Cl  0  0  0  0  0  0  0  0  0  0  0  0
    2.2875    1.2333    0.0000 I   0  0  0  0  0  0  0  0  0  0  0  0
    0.8375   -0.4875    0.0000 C   0  0  0  0  0  0  0  0  0  0  0  0
    0.1000    0.7833    0.0000 C   0  0  0  0  0  0  0  0  0  0  0  0
    0.8375    1.2125    0.0000 C   0  0  0  0  0  0  0  0  0  0  0  0
    1.5792   -0.0542    0.0000 C   0  0  0  0  0  0  0  0  0  0  0  0
  2  1  1  0  0  0  0
  3  1  2  0  0  0  0
  4  2  1  0  0  0  0
  5  2  2  0  0  0  0
  6  3  1  0  0  0  0
  7  4  1  0  0  0  0
  8  4  2  0  0  0  0
  9  6  1  0  0  0  0
 10 13  2  0  0  0  0
 10 12  1  0  0  0  0
 11 18  1  0  0  0  0
 11 19  2  0  0  0  0
 12  7  2  0  0  0  0
 13  8  1  0  0  0  0
 14 10  1  0  0  0  0
 15 11  1  0  0  0  0
 16  9  2  0  0  0  0
 17  9  1  0  0  0  0
 18 17  2  0  0  0  0
 19 16  1  0  0  0  0
M  END
>  <ID>
5404879

>  <Supplier>
ChemBridge

>  <clogP>
5.720000000000000e+000

>  <RB>
4

>  <tPSA>
2.910000000000000e+001

>  <Hacc>
1

>  <Hdon>
1

>  <LogSw>
-6.882000000000000e+000

>  <Group>
1

>  <Core>
207

$$$$
5404878
 OpenBabel03312015312D

 19 20  0  0  0  0  0  0  0  0999 V2000
   -2.8458   -0.0792    0.0000 C   0  0  0  0  0  0  0  0  0  0  0  0
   -2.1208    0.3625    0.0000 C   0  0  0  0  0  0  0  0  0  0  0  0
   -3.5625    0.3625    0.0000 C   0  0  0  0  0  0  0  0  0  0  0  0
   -1.4000   -0.0792    0.0000 C   0  0  0  0  0  0  0  0  0  0  0  0
   -2.8458   -0.9167    0.0000 O   0  0  0  0  0  0  0  0  0  0  0  0
   -3.5625    1.2000    0.0000 C   0  0  0  0  0  0  0  0  0  0  0  0
   -4.3000   -0.0792    0.0000 C   0  0  0  0  0  0  0  0  0  0  0  0
   -0.6625    0.3625    0.0000 N   0  0  0  0  0  0  0  0  0  0  0  0
   -5.0000    1.2000    0.0000 C   0  0  0  0  0  0  0  0  0  0  0  0
   -5.0208    0.3625    0.0000 C   0  0  0  0  0  0  0  0  0  0  0  0
   -4.2833    1.6208    0.0000 C   0  0  0  0  0  0  0  0  0  0  0  0
   -5.7333    1.6125    0.0000 Cl  0  0  0  0  0  0  0  0  0  0  0  0
    0.8000    0.3625    0.0000 C   0  0  0  0  0  0  0  0  0  0  0  0
    0.0792   -0.0542    0.0000 C   0  0  0  0  0  0  0  0  0  0  0  0
    1.5375   -0.0542    0.0000 C   0  0  0  0  0  0  0  0  0  0  0  0
    0.8000    1.2125    0.0000 C   0  0  0  0  0  0  0  0  0  0  0  0
    1.5167    1.6333    0.0000 C   0  0  0  0  0  0  0  0  0  0  0  0
    2.2542    0.3625    0.0000 C   0  0  0  0  0  0  0  0  0  0  0  0
    2.2542    1.2208    0.0000 C   0  0  0  0  0  0  0  0  0  0  0  0
  2  1  1  0  0  0  0
  3  1  1  0  0  0  0
  4  2  2  0  0  0  0
  5  1  2  0  0  0  0
  6  3  2  0  0  0  0
  7  3  1  0  0  0  0
  8  4  1  0  0  0  0
  9 10  1  0  0  0  0
  9 11  2  0  0  0  0
 10  7  2  0  0  0  0
 11  6  1  0  0  0  0
 12  9  1  0  0  0  0
 13 14  1  0  0  0  0
 14  8  1  0  0  0  0
 15 13  2  0  0  0  0
 16 13  1  0  0  0  0
 17 16  2  0  0  0  0
 18 15  1  0  0  0  0
 18 19  2  0  0  0  0
 19 17  1  0  0  0  0
M  END
>  <ID>
5404878

>  <Supplier>
ChemBridge

>  <clogP>
4.790000000000000e+000

>  <RB>
5

>  <tPSA>
2.910000000000000e+001

>  <Hacc>
1

>  <Hdon>
1

>  <LogSw>
-4.265000000000000e+000

>  <Group>
3

>  <Core>
207

$$$$
7967242
 OpenBabel03312015312D

 21 22  0  0  0  0  0  0  0  0999 V2000
    2.7792    1.4333    0.0000 C   0  0  0  0  0  0  0  0  0  0  0  0
    6.1542    0.7833    0.0000 C   0  0  0  0  0  0  0  0  0  0  0  0
    2.4042    2.0833    0.0000 N   0  0  0  0  0  0  0  0  0  0  0  0
    5.7792    1.4333    0.0000 N   0  0  0  0  0  0  0  0  0  0  0  0
    3.5292    1.4333    0.0000 C   0  0  0  0  0  0  0  0  0  0  0  0
    6.9042    0.7833    0.0000 C   0  0  3  0  0  0  0  0  0  0  0  0
    2.4042    0.7833    0.0000 O   0  0  0  0  0  0  0  0  0  0  0  0
    5.7792    0.1333    0.0000 O   0  0  0  0  0  0  0  0  0  0  0  0
    1.6542    2.0833    0.0000 C   0  0  0  0  0  0  0  0  0  0  0  0
    7.3500    0.1708    0.0000 O   0  0  0  0  0  0  0  0  0  0  0  0
    3.9042    0.7833    0.0000 C   0  0  0  0  0  0  0  0  0  0  0  0
    3.9042    2.0833    0.0000 C   0  0  0  0  0  0  0  0  0  0  0  0
    5.0292    1.4333    0.0000 C   0  0  0  0  0  0  0  0  0  0  0  0
    4.6542    2.0833    0.0000 C   0  0  0  0  0  0  0  0  0  0  0  0
    4.6542    0.7833    0.0000 C   0  0  0  0  0  0  0  0  0  0  0  0
    8.0625    0.4083    0.0000 C   0  0  0  0  0  0  0  0  0  0  0  0
    1.4667    2.8000    0.0000 C   0  0  0  0  0  0  0  0  0  0  0  0
    0.9167    1.9458    0.0000 C   0  0  0  0  0  0  0  0  0  0  0  0
    1.7250    1.3333    0.0000 C   0  0  0  0  0  0  0  0  0  0  0  0
    7.3500    1.3833    0.0000 C   0  0  0  0  0  0  0  0  0  0  0  0
    8.0625    1.1583    0.0000 C   0  0  0  0  0  0  0  0  0  0  0  0
  2  4  1  0  0  0  0
  3  1  1  0  0  0  0
  4 13  1  0  0  0  0
  5  1  1  0  0  0  0
  6  2  1  0  0  0  0
  7  1  2  0  0  0  0
  8  2  2  0  0  0  0
  9  3  1  0  0  0  0
 10  6  1  0  0  0  0
 11  5  1  0  0  0  0
 12  5  2  0  0  0  0
 13 14  2  0  0  0  0
 13 15  1  0  0  0  0
 14 12  1  0  0  0  0
 15 11  2  0  0  0  0
 16 10  1  0  0  0  0
 17  9  1  0  0  0  0
 18  9  1  0  0  0  0
 19  9  1  0  0  0  0
 20  6  1  0  0  0  0
 21 20  1  0  0  0  0
 21 16  1  0  0  0  0
M  END
>  <ID>
7967242

>  <Supplier>
ChemBridge

>  <clogP>
1.660000000000000e+000

>  <RB>
4

>  <tPSA>
6.743000000000001e+001

>  <Hacc>
3

>  <Hdon>
2

>  <LogSw>
-2.735000000000000e+000

>  <Group>
2

>  <Core>
150

$$$$
5193909
 OpenBabel03312015312D

 22 23  0  0  0  0  0  0  0  0999 V2000
   -3.0708    1.5500    0.0000 C   0  0  0  0  0  0  0  0  0  0  0  0
    3.0542   -1.5542    0.0000 C   0  0  0  0  0  0  0  0  0  0  0  0
   -0.4458   -0.0042    0.0000 N   0  0  0  0  0  0  0  0  0  0  0  0
    0.4167   -0.0042    0.0000 N   0  0  0  0  0  0  0  0  0  0  0  0
    3.5500   -0.8167    0.0000 C   0  0  0  0  0  0  0  0  0  0  0  0
   -3.5625    0.8208    0.0000 C   0  0  0  0  0  0  0  0  0  0  0  0
    2.1792   -1.5167    0.0000 C   0  0  0  0  0  0  0  0  0  0  0  0
   -2.2000    1.5333    0.0000 C   0  0  0  0  0  0  0  0  0  0  0  0
    3.1042   -0.0292    0.0000 C   0  0  0  0  0  0  0  0  0  0  0  0
   -3.1333    0.0333    0.0000 C   0  0  0  0  0  0  0  0  0  0  0  0
    1.7667   -0.7667    0.0000 C   0  0  0  0  0  0  0  0  0  0  0  0
   -1.7833    0.7625    0.0000 C   0  0  0  0  0  0  0  0  0  0  0  0
    0.8667   -0.7667    0.0000 C   0  0  0  0  0  0  0  0  0  0  0  0
   -0.8833    0.7708    0.0000 C   0  0  0  0  0  0  0  0  0  0  0  0
   -3.5333    2.3125    0.0000 O   0  0  0  0  0  0  0  0  0  0  0  0
    3.5167   -2.3042    0.0000 O   0  0  0  0  0  0  0  0  0  0  0  0
   -2.2500    0.0333    0.0000 C   0  0  0  0  0  0  0  0  0  0  0  0
    2.2292   -0.0292    0.0000 C   0  0  0  0  0  0  0  0  0  0  0  0
    4.4000   -0.8500    0.0000 O   0  0  0  0  0  0  0  0  0  0  0  0
   -4.4208    0.8500    0.0000 O   0  0  0  0  0  0  0  0  0  0  0  0
    4.7875   -1.6292    0.0000 C   0  0  0  0  0  0  0  0  0  0  0  0
   -4.8125    1.6208    0.0000 C   0  0  0  0  0  0  0  0  0  0  0  0
  2  7  2  0  0  0  0
  3 14  2  0  0  0  0
  4  3  1  0  0  0  0
  5  9  2  0  0  0  0
  5  2  1  0  0  0  0
  6  1  1  0  0  0  0
  7 11  1  0  0  0  0
  8  1  2  0  0  0  0
  9 18  1  0  0  0  0
 10  6  2  0  0  0  0
 11 13  1  0  0  0  0
 12  8  1  0  0  0  0
 13  4  2  0  0  0  0
 14 12  1  0  0  0  0
 15  1  1  0  0  0  0
 16  2  1  0  0  0  0
 17 12  2  0  0  0  0
 17 10  1  0  0  0  0
 18 11  2  0  0  0  0
 19  5  1  0  0  0  0
 20  6  1  0  0  0  0
 21 19  1  0  0  0  0
 22 20  1  0  0  0  0
M  END
>  <ID>
5193909

>  <Supplier>
ChemBridge

>  <clogP>
2.070000000000000e+000

>  <RB>
3

>  <tPSA>
8.364000000000003e+001

>  <Hacc>
6

>  <Hdon>
2

>  <LogSw>
-3.158000000000000e+000

>  <Group>
1

$$$$
5482572
 OpenBabel03312015312D

 20 21  0  0  0  0  0  0  0  0999 V2000
    4.2417    3.4333    0.0000 N   0  3  0  0  0  0  0  0  0  0  0  0
    2.2917    2.3083    0.0000 C   0  0  3  0  0  0  0  0  0  0  0  0
    2.2917    1.5583    0.0000 C   0  0  3  0  0  0  0  0  0  0  0  0
    1.6417    2.6833    0.0000 C   0  0  3  0  0  0  0  0  0  0  0  0
    2.9417    1.1833    0.0000 N   0  0  0  0  0  0  0  0  0  0  0  0
    3.5917    1.5583    0.0000 C   0  0  0  0  0  0  0  0  0  0  0  0
    4.2417    2.6833    0.0000 C   0  0  0  0  0  0  0  0  0  0  0  0
    1.6417    1.1833    0.0000 O   0  0  0  0  0  0  0  0  0  0  0  0
    3.5917    2.3083    0.0000 C   0  0  0  0  0  0  0  0  0  0  0  0
    0.9917    2.3083    0.0000 C   0  0  3  0  0  0  0  0  0  0  0  0
    4.8917    3.8083    0.0000 O   0  5  0  0  0  0  0  0  0  0  0  0
    3.5917    3.8083    0.0000 O   0  0  0  0  0  0  0  0  0  0  0  0
    0.9917    1.5583    0.0000 C   0  0  0  0  0  0  0  0  0  0  0  0
    4.2417    1.1833    0.0000 C   0  0  0  0  0  0  0  0  0  0  0  0
    4.8917    2.3083    0.0000 C   0  0  0  0  0  0  0  0  0  0  0  0
    4.8917    1.5583    0.0000 C   0  0  0  0  0  0  0  0  0  0  0  0
    2.9417    2.6833    0.0000 O   0  0  0  0  0  0  0  0  0  0  0  0
    1.6417    3.4333    0.0000 O   0  0  0  0  0  0  0  0  0  0  0  0
    0.3417    2.6833    0.0000 O   0  0  0  0  0  0  0  0  0  0  0  0
    4.2417    0.4333    0.0000 C   0  0  0  0  0  0  0  0  0  0  0  0
  2  3  1  0  0  0  0
  3  5  1  0  0  0  0
  4  2  1  0  0  0  0
  5  6  1  0  0  0  0
  6  9  1  0  0  0  0
  7  1  1  0  0  0  0
  8  3  1  0  0  0  0
  9  7  2  0  0  0  0
 10 13  1  0  0  0  0
 10  4  1  0  0  0  0
 11  1  1  0  0  0  0
 12  1  2  0  0  0  0
 13  8  1  0  0  0  0
 14 16  1  0  0  0  0
 14  6  2  0  0  0  0
 15  7  1  0  0  0  0
 16 15  2  0  0  0  0
 17  2  1  0  0  0  0
 18  4  1  0  0  0  0
 19 10  1  0  0  0  0
 20 14  1  0  0  0  0
M  CHG  2   1   1  11  -1
M  END
>  <ID>
5482572

>  <Supplier>
ChemBridge

>  <clogP>
6.700000000000000e-001

>  <RB>
2

>  <tPSA>
1.250900000000000e+002

>  <Hacc>
6

>  <Hdon>
4

>  <LogSw>
-1.846000000000000e+000

>  <Group>
2

$$$$
7967241
 OpenBabel03312015312D

 27 30  0  0  0  0  0  0  0  0999 V2000
    7.1375   -3.9792    0.0000 N   0  0  0  0  0  0  0  0  0  0  0  0
    6.4667   -4.4667    0.0000 C   0  0  0  0  0  0  0  0  0  0  0  0
    6.7167   -5.2542    0.0000 N   0  0  0  0  0  0  0  0  0  0  0  0
    7.8042   -4.4667    0.0000 C   0  0  0  0  0  0  0  0  0  0  0  0
    7.5500   -5.2542    0.0000 N   0  0  0  0  0  0  0  0  0  0  0  0
    5.6792   -4.2125    0.0000 C   0  0  0  0  0  0  0  0  0  0  0  0
   11.3875   -4.8167    0.0000 C   0  0  3  0  0  0  0  0  0  0  0  0
   10.6000   -5.0667    0.0000 N   0  0  0  0  0  0  0  0  0  0  0  0
    9.9917   -4.5167    0.0000 C   0  0  0  0  0  0  0  0  0  0  0  0
   11.5792   -3.9917    0.0000 C   0  0  3  0  0  0  0  0  0  0  0  0
    8.5917   -4.2167    0.0000 S   0  0  0  0  0  0  0  0  0  0  0  0
    5.0667   -4.7625    0.0000 C   0  0  0  0  0  0  0  0  0  0  0  0
    5.5042   -3.4000    0.0000 C   0  0  0  0  0  0  0  0  0  0  0  0
   12.0042   -5.3625    0.0000 C   0  0  0  0  0  0  0  0  0  0  0  0
    4.1000   -3.6917    0.0000 C   0  0  0  0  0  0  0  0  0  0  0  0
   11.9375   -4.9667    0.0000 C   0  0  0  0  0  0  0  0  0  0  0  0
    4.7167   -3.1417    0.0000 C   0  0  0  0  0  0  0  0  0  0  0  0
    4.2792   -4.5042    0.0000 C   0  0  0  0  0  0  0  0  0  0  0  0
   12.7417   -5.1250    0.0000 C   0  0  3  0  0  0  0  0  0  0  0  0
   10.1667   -3.7125    0.0000 O   0  0  0  0  0  0  0  0  0  0  0  0
   12.3417   -3.7542    0.0000 C   0  0  0  0  0  0  0  0  0  0  0  0
    9.2042   -4.7667    0.0000 C   0  0  0  0  0  0  0  0  0  0  0  0
   12.9542   -4.3000    0.0000 C   0  0  0  0  0  0  0  0  0  0  0  0
    3.6625   -5.0667    0.0000 O   0  0  0  0  0  0  0  0  0  0  0  0
    4.5500   -2.3292    0.0000 O   0  0  0  0  0  0  0  0  0  0  0  0
    2.8750   -4.8167    0.0000 C   0  0  0  0  0  0  0  0  0  0  0  0
    5.1625   -1.7792    0.0000 C   0  0  0  0  0  0  0  0  0  0  0  0
  2  1  1  0  0  0  0
  3  2  2  0  0  0  0
  4  1  1  0  0  0  0
  5  4  2  0  0  0  0
  5  3  1  0  0  0  0
  6  2  1  0  0  0  0
  7  8  1  0  0  0  0
  8  9  1  0  0  0  0
  9 22  1  0  0  0  0
 10  7  1  0  0  0  0
 11  4  1  0  0  0  0
 12  6  1  0  0  0  0
 13  6  2  0  0  0  0
 14  7  1  0  0  0  0
 15 17  2  0  0  0  0
 16 10  1  0  0  0  0
 16 19  1  0  0  0  0
 17 13  1  0  0  0  0
 18 12  2  0  0  0  0
 18 15  1  0  0  0  0
 19 14  1  0  0  0  0
 20  9  2  0  0  0  0
 21 10  1  0  0  0  0
 21 23  1  0  0  0  0
 22 11  1  0  0  0  0
 23 19  1  0  0  0  0
 24 18  1  0  0  0  0
 25 17  1  0  0  0  0
 26 24  1  0  0  0  0
 27 25  1  0  0  0  0
M  END
>  <ID>
7967241

>  <Supplier>
ChemBridge

>  <clogP>
2.360000000000000e+000

>  <RB>
5

>  <tPSA>
8.913000000000000e+001

>  <Hacc>
5

>  <Hdon>
2

>  <LogSw>
-4.048000000000000e+000

>  <Group>
2

>  <Core>
010

$$$$
7967246
 OpenBabel03312015312D

 23 25  0  0  0  0  0  0  0  0999 V2000
    5.6542    1.6875    0.0000 C   0  0  0  0  0  0  0  0  0  0  0  0
    6.0292    2.3333    0.0000 C   0  0  0  0  0  0  0  0  0  0  0  0
    4.9042    1.6875    0.0000 N   0  0  0  0  0  0  0  0  0  0  0  0
    3.4042    1.6875    0.0000 N   0  0  0  0  0  0  0  0  0  0  0  0
    2.6542    1.6875    0.0000 C   0  0  0  0  0  0  0  0  0  0  0  0
    2.2792    2.3333    0.0000 C   0  0  0  0  0  0  0  0  0  0  0  0
    6.7792    2.3333    0.0000 C   0  0  0  0  0  0  0  0  0  0  0  0
    6.0292    1.0375    0.0000 O   0  0  0  0  0  0  0  0  0  0  0  0
    4.5292    1.0375    0.0000 C   0  0  0  0  0  0  0  0  0  0  0  0
    4.5292    2.3333    0.0000 C   0  0  0  0  0  0  0  0  0  0  0  0
    3.7792    1.0375    0.0000 C   0  0  0  0  0  0  0  0  0  0  0  0
    3.7792    2.3333    0.0000 C   0  0  0  0  0  0  0  0  0  0  0  0
    1.5292    2.3333    0.0000 C   0  0  0  0  0  0  0  0  0  0  0  0
    7.1542    1.6875    0.0000 S   0  0  0  0  0  0  0  0  0  0  0  0
    5.6542    2.9833    0.0000 C   0  0  0  0  0  0  0  0  0  0  0  0
    1.1542    2.9833    0.0000 Cl  0  0  0  0  0  0  0  0  0  0  0  0
    2.2792    1.0375    0.0000 C   0  0  0  0  0  0  0  0  0  0  0  0
    1.5292    1.0375    0.0000 C   0  0  0  0  0  0  0  0  0  0  0  0
    7.1542    2.9833    0.0000 C   0  0  0  0  0  0  0  0  0  0  0  0
    1.1542    1.6875    0.0000 C   0  0  0  0  0  0  0  0  0  0  0  0
    7.9042    1.6875    0.0000 C   0  0  0  0  0  0  0  0  0  0  0  0
    6.0292    3.6333    0.0000 C   0  0  0  0  0  0  0  0  0  0  0  0
    6.7792    3.6333    0.0000 C   0  0  0  0  0  0  0  0  0  0  0  0
  2  1  1  0  0  0  0
  3  1  1  0  0  0  0
  4 12  1  0  0  0  0
  5  4  1  0  0  0  0
  6  5  2  0  0  0  0
  7  2  1  0  0  0  0
  8  1  2  0  0  0  0
  9  3  1  0  0  0  0
 10  3  1  0  0  0  0
 11  9  1  0  0  0  0
 11  4  1  0  0  0  0
 12 10  1  0  0  0  0
 13  6  1  0  0  0  0
 14  7  1  0  0  0  0
 15  2  2  0  0  0  0
 16 13  1  0  0  0  0
 17  5  1  0  0  0  0
 18 17  2  0  0  0  0
 19  7  2  0  0  0  0
 19 23  1  0  0  0  0
 20 18  1  0  0  0  0
 20 13  2  0  0  0  0
 21 14  1  0  0  0  0
 22 15  1  0  0  0  0
 23 22  2  0  0  0  0
M  END
>  <ID>
7967246

>  <Supplier>
ChemBridge

>  <clogP>
3.490000000000000e+000

>  <RB>
2

>  <tPSA>
2.355000000000000e+001

>  <Hacc>
1

>  <Hdon>
0

>  <LogSw>
-4.710000000000000e+000

>  <Group>
1

>  <Core>
158

$$$$
7967247
 OpenBabel03312015312D

 31 33  0  0  0  0  0  0  0  0999 V2000
    5.3792    3.1208    0.0000 N   0  0  0  0  0  0  0  0  0  0  0  0
    5.8167    3.7333    0.0000 C   0  0  0  0  0  0  0  0  0  0  0  0
    4.6625    3.3583    0.0000 C   0  0  0  0  0  0  0  0  0  0  0  0
    5.3792    4.3250    0.0000 N   0  0  0  0  0  0  0  0  0  0  0  0
    4.6625    4.0917    0.0000 N   0  0  0  0  0  0  0  0  0  0  0  0
    8.8167    2.4250    0.0000 C   0  0  0  0  0  0  0  0  0  0  0  0
    9.1917    1.7750    0.0000 C   0  0  0  0  0  0  0  0  0  0  0  0
    8.0667    2.4250    0.0000 N   0  0  0  0  0  0  0  0  0  0  0  0
    6.5667    3.7333    0.0000 S   0  0  0  0  0  0  0  0  0  0  0  0
    7.6917    3.0833    0.0000 C   0  0  0  0  0  0  0  0  0  0  0  0
    4.0542    2.9083    0.0000 C   0  0  0  0  0  0  0  0  0  0  0  0
    9.9417    1.7750    0.0000 C   0  0  0  0  0  0  0  0  0  0  0  0
    2.7667    2.7708    0.0000 C   0  0  0  0  0  0  0  0  0  0  0  0
    9.1917    3.0833    0.0000 C   0  0  0  0  0  0  0  0  0  0  0  0
    8.0667    3.7333    0.0000 O   0  0  0  0  0  0  0  0  0  0  0  0
    3.3667    3.2125    0.0000 O   0  0  0  0  0  0  0  0  0  0  0  0
    6.9417    3.0833    0.0000 C   0  0  0  0  0  0  0  0  0  0  0  0
    1.4750    2.6458    0.0000 C   0  0  0  0  0  0  0  0  0  0  0  0
    2.2375    1.5875    0.0000 C   0  0  0  0  0  0  0  0  0  0  0  0
    8.8167    1.1250    0.0000 C   0  0  0  0  0  0  0  0  0  0  0  0
    5.6042    2.4083    0.0000 C   0  0  0  0  0  0  0  0  0  0  0  0
   10.3167    2.4250    0.0000 C   0  0  0  0  0  0  0  0  0  0  0  0
    2.8417    2.0250    0.0000 C   0  0  0  0  0  0  0  0  0  0  0  0
    2.0792    3.0833    0.0000 C   0  0  0  0  0  0  0  0  0  0  0  0
    1.5542    1.8958    0.0000 C   0  0  0  0  0  0  0  0  0  0  0  0
    9.9417    3.0833    0.0000 C   0  0  0  0  0  0  0  0  0  0  0  0
   11.0667    2.4250    0.0000 Br  0  0  0  0  0  0  0  0  0  0  0  0
    2.3167    0.8458    0.0000 C   0  0  0  0  0  0  0  0  0  0  0  0
    0.7875    2.9458    0.0000 C   0  0  0  0  0  0  0  0  0  0  0  0
    9.1917    0.4750    0.0000 C   0  0  0  0  0  0  0  0  0  0  0  0
    8.0667    1.1250    0.0000 C   0  0  0  0  0  0  0  0  0  0  0  0
  2  1  1  0  0  0  0
  3  1  1  0  0  0  0
  4  2  2  0  0  0  0
  5  3  2  0  0  0  0
  5  4  1  0  0  0  0
  6  8  1  0  0  0  0
  7  6  1  0  0  0  0
  8 10  1  0  0  0  0
  9  2  1  0  0  0  0
 10 17  1  0  0  0  0
 11  3  1  0  0  0  0
 12  7  2  0  0  0  0
 13 16  1  0  0  0  0
 14  6  2  0  0  0  0
 15 10  2  0  0  0  0
 16 11  1  0  0  0  0
 17  9  1  0  0  0  0
 18 24  2  0  0  0  0
 19 23  1  0  0  0  0
 20  7  1  0  0  0  0
 21  1  1  0  0  0  0
 22 26  2  0  0  0  0
 22 12  1  0  0  0  0
 23 13  2  0  0  0  0
 24 13  1  0  0  0  0
 25 18  1  0  0  0  0
 25 19  2  0  0  0  0
 26 14  1  0  0  0  0
 27 22  1  0  0  0  0
 28 19  1  0  0  0  0
 29 18  1  0  0  0  0
 30 20  1  0  0  0  0
 31 20  1  0  0  0  0
M  END
>  <ID>
7967247

>  <Supplier>
ChemBridge

>  <clogP>
4.470000000000002e+000

>  <RB>
7

>  <tPSA>
6.904000000000001e+001

>  <Hacc>
4

>  <Hdon>
1

>  <LogSw>
-6.686999999999999e+000

>  <Group>
1

>  <Core>
009

$$$$
7967244
 OpenBabel03312015312D

 23 25  0  0  0  0  0  0  0  0999 V2000
    1.6625    1.6083    0.0000 N   0  3  0  0  0  0  0  0  0  0  0  0
    6.8542    1.6083    0.0000 C   0  0  0  0  0  0  0  0  0  0  0  0
    7.5042    1.9833    0.0000 N   0  0  0  0  0  0  0  0  0  0  0  0
    2.3042    1.9833    0.0000 C   0  0  0  0  0  0  0  0  0  0  0  0
    1.0125    1.9833    0.0000 O   0  5  0  0  0  0  0  0  0  0  0  0
    6.2042    1.9833    0.0000 C   0  0  0  0  0  0  0  0  0  0  0  0
    1.6625    0.8583    0.0000 O   0  0  0  0  0  0  0  0  0  0  0  0
    6.8542    0.8583    0.0000 O   0  0  0  0  0  0  0  0  0  0  0  0
    4.2542    3.1083    0.0000 O   0  0  0  0  0  0  0  0  0  0  0  0
    2.9542    1.6083    0.0000 C   0  0  0  0  0  0  0  0  0  0  0  0
    2.3042    2.7333    0.0000 C   0  0  0  0  0  0  0  0  0  0  0  0
    5.5542    1.6083    0.0000 C   0  0  0  0  0  0  0  0  0  0  0  0
    6.2042    2.7333    0.0000 C   0  0  0  0  0  0  0  0  0  0  0  0
    3.6042    2.7333    0.0000 C   0  0  0  0  0  0  0  0  0  0  0  0
    4.9042    2.7333    0.0000 C   0  0  0  0  0  0  0  0  0  0  0  0
    2.9542    3.1083    0.0000 C   0  0  0  0  0  0  0  0  0  0  0  0
    5.5542    3.1083    0.0000 C   0  0  0  0  0  0  0  0  0  0  0  0
    4.9042    1.9833    0.0000 C   0  0  0  0  0  0  0  0  0  0  0  0
    3.6042    1.9833    0.0000 C   0  0  0  0  0  0  0  0  0  0  0  0
    8.1917    1.6833    0.0000 C   0  0  0  0  0  0  0  0  0  0  0  0
    7.5792    2.7333    0.0000 C   0  0  0  0  0  0  0  0  0  0  0  0
    8.3167    2.8958    0.0000 C   0  0  0  0  0  0  0  0  0  0  0  0
    8.6917    2.2375    0.0000 C   0  0  0  0  0  0  0  0  0  0  0  0
  2  6  1  0  0  0  0
  3  2  1  0  0  0  0
  4  1  1  0  0  0  0
  5  1  1  0  0  0  0
  6 12  1  0  0  0  0
  7  1  2  0  0  0  0
  8  2  2  0  0  0  0
  9 14  1  0  0  0  0
 10  4  2  0  0  0  0
 11  4  1  0  0  0  0
 12 18  2  0  0  0  0
 13 17  1  0  0  0  0
 13  6  2  0  0  0  0
 14 16  1  0  0  0  0
 15  9  1  0  0  0  0
 16 11  2  0  0  0  0
 17 15  2  0  0  0  0
 18 15  1  0  0  0  0
 19 10  1  0  0  0  0
 19 14  2  0  0  0  0
 20  3  1  0  0  0  0
 21  3  1  0  0  0  0
 22 21  1  0  0  0  0
 22 23  1  0  0  0  0
 23 20  1  0  0  0  0
M  CHG  2   1   1   5  -1
M  END
>  <ID>
7967244

>  <Supplier>
ChemBridge

>  <clogP>
3.080000000000000e+000

>  <RB>
3

>  <tPSA>
7.268000000000001e+001

>  <Hacc>
4

>  <Hdon>
0

>  <LogSw>
-4.498000000000000e+000

>  <Group>
3

$$$$
5482579
 OpenBabel03312015312D

 20 21  0  0  0  0  0  0  0  0999 V2000
   -0.8125   -0.3167    0.0000 C   0  0  0  0  0  0  0  0  0  0  0  0
   -1.4958    0.1000    0.0000 C   0  0  0  0  0  0  0  0  0  0  0  0
   -0.8125   -1.1167    0.0000 N   0  0  0  0  0  0  0  0  0  0  0  0
   -0.1125    0.1000    0.0000 N   0  0  0  0  0  0  0  0  0  0  0  0
   -2.1958   -0.3167    0.0000 C   0  0  0  0  0  0  0  0  0  0  0  0
   -2.2125   -1.1167    0.0000 O   0  0  0  0  0  0  0  0  0  0  0  0
   -0.1333   -1.5167    0.0000 C   0  0  0  0  0  0  0  0  0  0  0  0
   -0.0958    0.9000    0.0000 C   0  0  0  0  0  0  0  0  0  0  0  0
   -3.6125   -0.2875    0.0000 Cl  0  0  0  0  0  0  0  0  0  0  0  0
   -2.8958    0.1000    0.0000 C   0  0  0  0  0  0  0  0  0  0  0  0
   -0.1333   -2.3167    0.0000 C   0  0  0  0  0  0  0  0  0  0  0  0
    0.5542   -1.1042    0.0000 C   0  0  0  0  0  0  0  0  0  0  0  0
   -0.8000    1.3000    0.0000 C   0  0  0  0  0  0  0  0  0  0  0  0
    0.6042    1.3000    0.0000 C   0  0  0  0  0  0  0  0  0  0  0  0
    0.5667   -2.7167    0.0000 C   0  0  0  0  0  0  0  0  0  0  0  0
   -0.8000    2.1208    0.0000 C   0  0  0  0  0  0  0  0  0  0  0  0
    0.6042    2.1208    0.0000 C   0  0  0  0  0  0  0  0  0  0  0  0
    1.2667   -1.5042    0.0000 C   0  0  0  0  0  0  0  0  0  0  0  0
   -0.1000    2.5208    0.0000 C   0  0  0  0  0  0  0  0  0  0  0  0
    1.2667   -2.3167    0.0000 C   0  0  0  0  0  0  0  0  0  0  0  0
  2  1  2  0  0  0  0
  3  1  1  0  0  0  0
  4  1  1  0  0  0  0
  5  2  1  0  0  0  0
  6  5  2  0  0  0  0
  7  3  1  0  0  0  0
  8  4  1  0  0  0  0
  9 10  1  0  0  0  0
 10  5  1  0  0  0  0
 11  7  2  0  0  0  0
 12  7  1  0  0  0  0
 13  8  1  0  0  0  0
 14  8  2  0  0  0  0
 15 11  1  0  0  0  0
 15 20  2  0  0  0  0
 16 13  2  0  0  0  0
 16 19  1  0  0  0  0
 17 14  1  0  0  0  0
 18 12  2  0  0  0  0
 19 17  2  0  0  0  0
 20 18  1  0  0  0  0
M  END
>  <ID>
5482579

>  <Supplier>
ChemBridge

>  <clogP>
2.840000000000000e+000

>  <RB>
5

>  <tPSA>
4.113000000000000e+001

>  <Hacc>
1

>  <Hdon>
2

>  <LogSw>
-3.717000000000000e+000

>  <Group>
1

$$$$
7967248
 OpenBabel03312015312D

 20 21  0  0  0  0  0  0  0  0999 V2000
    8.9500    1.5833    0.0000 C   0  0  0  0  0  0  0  0  0  0  0  0
    7.6500    1.5833    0.0000 O   0  0  0  0  0  0  0  0  0  0  0  0
    9.6000    1.2083    0.0000 N   0  0  0  0  0  0  0  0  0  0  0  0
    7.0000    1.2083    0.0000 C   0  0  0  0  0  0  0  0  0  0  0  0
    8.3000    1.2083    0.0000 C   0  0  3  0  0  0  0  0  0  0  0  0
    8.9500    2.3333    0.0000 O   0  0  0  0  0  0  0  0  0  0  0  0
   12.1917    0.4583    0.0000 N   0  0  0  0  0  0  0  0  0  0  0  0
    6.3500    1.5833    0.0000 C   0  0  0  0  0  0  0  0  0  0  0  0
   10.2500    1.5833    0.0000 C   0  0  0  0  0  0  0  0  0  0  0  0
   10.8917    1.2083    0.0000 C   0  0  0  0  0  0  0  0  0  0  0  0
    7.0000    0.4583    0.0000 C   0  0  0  0  0  0  0  0  0  0  0  0
   11.5417    0.0833    0.0000 C   0  0  0  0  0  0  0  0  0  0  0  0
   12.1917    1.2083    0.0000 C   0  0  0  0  0  0  0  0  0  0  0  0
    8.3000    0.4583    0.0000 C   0  0  0  0  0  0  0  0  0  0  0  0
    6.3500    2.3333    0.0000 C   0  0  0  0  0  0  0  0  0  0  0  0
    5.7042    1.2083    0.0000 C   0  0  0  0  0  0  0  0  0  0  0  0
   11.5417    1.5833    0.0000 C   0  0  0  0  0  0  0  0  0  0  0  0
   10.8917    0.4583    0.0000 C   0  0  0  0  0  0  0  0  0  0  0  0
    6.3500    0.0833    0.0000 C   0  0  0  0  0  0  0  0  0  0  0  0
    5.7042    0.4583    0.0000 C   0  0  0  0  0  0  0  0  0  0  0  0
  2  5  1  0  0  0  0
  3  1  1  0  0  0  0
  4  2  1  0  0  0  0
  5  1  1  0  0  0  0
  6  1  2  0  0  0  0
  7 12  1  0  0  0  0
  8  4  2  0  0  0  0
  9  3  1  0  0  0  0
 10  9  1  0  0  0  0
 11  4  1  0  0  0  0
 12 18  2  0  0  0  0
 13 17  1  0  0  0  0
 13  7  2  0  0  0  0
 14  5  1  0  0  0  0
 15  8  1  0  0  0  0
 16  8  1  0  0  0  0
 17 10  2  0  0  0  0
 18 10  1  0  0  0  0
 19 11  2  0  0  0  0
 20 19  1  0  0  0  0
 20 16  2  0  0  0  0
M  END
>  <ID>
7967248

>  <Supplier>
ChemBridge

>  <clogP>
2.010000000000000e+000

>  <RB>
5

>  <tPSA>
5.121999999999999e+001

>  <Hacc>
3

>  <Hdon>
1

>  <LogSw>
-1.589000000000000e+000

>  <Group>
2

>  <Core>
315

$$$$
7967249
 OpenBabel03312015312D

 33 37  0  0  0  0  0  0  0  0999 V2000
    5.4917    1.0125    0.0000 N   0  0  0  0  0  0  0  0  0  0  0  0
    6.5417    1.6208    0.0000 C   0  0  3  0  0  0  0  0  0  0  0  0
    6.2375    0.9375    0.0000 C   0  0  0  0  0  0  0  0  0  0  0  0
    5.9792    2.1250    0.0000 C   0  0  0  0  0  0  0  0  0  0  0  0
    5.3375    1.7500    0.0000 C   0  0  0  0  0  0  0  0  0  0  0  0
    7.1917    1.2458    0.0000 C   0  0  0  0  0  0  0  0  0  0  0  0
    7.8417    1.6208    0.0000 C   0  0  0  0  0  0  0  0  0  0  0  0
    4.9917    0.4583    0.0000 C   0  0  0  0  0  0  0  0  0  0  0  0
    8.4917    1.2458    0.0000 C   0  0  0  0  0  0  0  0  0  0  0  0
    9.1417    0.1208    0.0000 C   0  0  0  0  0  0  0  0  0  0  0  0
    8.4917    0.4958    0.0000 C   0  0  0  0  0  0  0  0  0  0  0  0
    3.2917    1.4833    0.0000 C   0  0  0  0  0  0  0  0  0  0  0  0
    6.6125    0.2875    0.0000 O   0  0  0  0  0  0  0  0  0  0  0  0
    9.7917    0.4958    0.0000 C   0  0  0  0  0  0  0  0  0  0  0  0
    2.7875    0.9250    0.0000 C   0  0  0  0  0  0  0  0  0  0  0  0
    9.1417   -0.6292    0.0000 O   0  0  0  0  0  0  0  0  0  0  0  0
    4.2542    0.6125    0.0000 C   0  0  0  0  0  0  0  0  0  0  0  0
    4.0250    1.3250    0.0000 C   0  0  0  0  0  0  0  0  0  0  0  0
   10.4417    0.1208    0.0000 O   0  0  0  0  0  0  0  0  0  0  0  0
    6.9792    2.2333    0.0000 O   0  0  0  0  0  0  0  0  0  0  0  0
    7.8417    2.3708    0.0000 O   0  0  0  0  0  0  0  0  0  0  0  0
    9.1417    1.6208    0.0000 C   0  0  0  0  0  0  0  0  0  0  0  0
    9.7917    1.2458    0.0000 C   0  0  0  0  0  0  0  0  0  0  0  0
    3.0167    0.2125    0.0000 C   0  0  0  0  0  0  0  0  0  0  0  0
    3.0542    2.1958    0.0000 Cl  0  0  0  0  0  0  0  0  0  0  0  0
    3.7542    0.0583    0.0000 C   0  0  0  0  0  0  0  0  0  0  0  0
    2.0542    1.0833    0.0000 Cl  0  0  0  0  0  0  0  0  0  0  0  0
    5.9792    2.8750    0.0000 C   0  0  0  0  0  0  0  0  0  0  0  0
    4.6875    2.1250    0.0000 C   0  0  0  0  0  0  0  0  0  0  0  0
    9.7917   -1.0042    0.0000 C   0  0  0  0  0  0  0  0  0  0  0  0
   10.4417   -0.6292    0.0000 C   0  0  0  0  0  0  0  0  0  0  0  0
    5.3375    3.2500    0.0000 C   0  0  0  0  0  0  0  0  0  0  0  0
    4.6875    2.8750    0.0000 C   0  0  0  0  0  0  0  0  0  0  0  0
  2  3  1  0  0  0  0
  3  1  1  0  0  0  0
  4  5  2  0  0  0  0
  4  2  1  0  0  0  0
  5  1  1  0  0  0  0
  6  2  1  0  0  0  0
  7  6  1  0  0  0  0
  8  1  1  0  0  0  0
  9  7  1  0  0  0  0
 10 11  2  0  0  0  0
 11  9  1  0  0  0  0
 12 18  1  0  0  0  0
 12 15  2  0  0  0  0
 13  3  2  0  0  0  0
 14 23  2  0  0  0  0
 14 10  1  0  0  0  0
 15 24  1  0  0  0  0
 16 10  1  0  0  0  0
 17  8  1  0  0  0  0
 18 17  2  0  0  0  0
 19 14  1  0  0  0  0
 20  2  1  0  0  0  0
 21  7  2  0  0  0  0
 22  9  2  0  0  0  0
 23 22  1  0  0  0  0
 24 26  2  0  0  0  0
 25 12  1  0  0  0  0
 26 17  1  0  0  0  0
 27 15  1  0  0  0  0
 28  4  1  0  0  0  0
 29  5  1  0  0  0  0
 30 16  1  0  0  0  0
 31 19  1  0  0  0  0
 31 30  1  0  0  0  0
 32 33  1  0  0  0  0
 32 28  2  0  0  0  0
 33 29  2  0  0  0  0
M  END
>  <ID>
7967249

>  <Supplier>
ChemBridge

>  <clogP>
5.330000000000000e+000

>  <RB>
5

>  <tPSA>
7.606999999999998e+001

>  <Hacc>
5

>  <Hdon>
1

>  <LogSw>
-7.282000000000000e+000

>  <Group>
1

>  <Core>
101

$$$$
5193905
 OpenBabel03312015312D

 28 30  0  0  0  0  0  0  0  0999 V2000
   -1.4000    0.0000    0.0000 N   0  0  0  0  0  0  0  0  0  0  0  0
    1.3792    0.0000    0.0000 N   0  0  0  0  0  0  0  0  0  0  0  0
    3.4875   -1.2542    0.0000 C   0  0  0  0  0  0  0  0  0  0  0  0
   -3.5125    1.2625    0.0000 C   0  0  0  0  0  0  0  0  0  0  0  0
    3.8667   -0.6542    0.0000 C   0  0  0  0  0  0  0  0  0  0  0  0
   -3.8958    0.6625    0.0000 C   0  0  0  0  0  0  0  0  0  0  0  0
    1.7375   -0.6167    0.0000 C   0  0  0  0  0  0  0  0  0  0  0  0
   -1.7625    0.6208    0.0000 C   0  0  0  0  0  0  0  0  0  0  0  0
   -2.8125    1.2333    0.0000 C   0  0  0  0  0  0  0  0  0  0  0  0
    2.7875   -1.2292    0.0000 C   0  0  0  0  0  0  0  0  0  0  0  0
   -3.5458    0.0333    0.0000 C   0  0  0  0  0  0  0  0  0  0  0  0
    3.5167   -0.0292    0.0000 C   0  0  0  0  0  0  0  0  0  0  0  0
    0.6875    0.0000    0.0000 C   0  0  0  0  0  0  0  0  0  0  0  0
   -0.7125    0.0000    0.0000 C   0  0  0  0  0  0  0  0  0  0  0  0
   -2.4708    0.6208    0.0000 C   0  0  0  0  0  0  0  0  0  0  0  0
    2.4417   -0.6167    0.0000 C   0  0  0  0  0  0  0  0  0  0  0  0
   -3.8708    1.8625    0.0000 O   0  0  0  0  0  0  0  0  0  0  0  0
    3.8500   -1.8542    0.0000 O   0  0  0  0  0  0  0  0  0  0  0  0
   -2.8458    0.0333    0.0000 C   0  0  0  0  0  0  0  0  0  0  0  0
    2.8167   -0.0292    0.0000 C   0  0  0  0  0  0  0  0  0  0  0  0
    0.3292   -0.6000    0.0000 C   0  0  0  0  0  0  0  0  0  0  0  0
   -0.3625   -0.6000    0.0000 C   0  0  0  0  0  0  0  0  0  0  0  0
    0.3375    0.6000    0.0000 C   0  0  0  0  0  0  0  0  0  0  0  0
   -0.3500    0.6000    0.0000 C   0  0  0  0  0  0  0  0  0  0  0  0
    4.5500   -0.6792    0.0000 O   0  0  0  0  0  0  0  0  0  0  0  0
   -4.5708    0.6833    0.0000 O   0  0  0  0  0  0  0  0  0  0  0  0
    4.8667   -1.3042    0.0000 C   0  0  0  0  0  0  0  0  0  0  0  0
   -4.8958    1.3125    0.0000 C   0  0  0  0  0  0  0  0  0  0  0  0
  2 13  1  0  0  0  0
  3 10  2  0  0  0  0
  4  9  2  0  0  0  0
  5 12  2  0  0  0  0
  5  3  1  0  0  0  0
  6 11  2  0  0  0  0
  6  4  1  0  0  0  0
  7  2  2  0  0  0  0
  8  1  2  0  0  0  0
  9 15  1  0  0  0  0
 10 16  1  0  0  0  0
 11 19  1  0  0  0  0
 12 20  1  0  0  0  0
 13 23  1  0  0  0  0
 13 21  2  0  0  0  0
 14  1  1  0  0  0  0
 15  8  1  0  0  0  0
 16  7  1  0  0  0  0
 17  4  1  0  0  0  0
 18  3  1  0  0  0  0
 19 15  2  0  0  0  0
 20 16  2  0  0  0  0
 21 22  1  0  0  0  0
 22 14  2  0  0  0  0
 23 24  2  0  0  0  0
 24 14  1  0  0  0  0
 25  5  1  0  0  0  0
 26  6  1  0  0  0  0
 27 25  1  0  0  0  0
 28 26  1  0  0  0  0
M  END
>  <ID>
5193905

>  <Supplier>
ChemBridge

>  <clogP>
1.920000000000000e+000

>  <RB>
4

>  <tPSA>
8.364000000000003e+001

>  <Hacc>
6

>  <Hdon>
2

>  <LogSw>
-3.584000000000000e+000

>  <Group>
1

>  <Core>
464

$$$$
9059861
 OpenBabel03312015312D

 19 20  0  0  0  0  0  0  0  0999 V2000
    4.3292    1.8750    0.0000 C   0  0  0  0  0  0  0  0  0  0  0  0
    4.9792    1.5000    0.0000 N   0  0  0  0  0  0  0  0  0  0  0  0
    5.6250    1.8750    0.0000 C   0  0  0  0  0  0  0  0  0  0  0  0
    3.6792    1.5000    0.0000 N   0  0  0  0  0  0  0  0  0  0  0  0
    4.3292    2.6250    0.0000 O   0  0  0  0  0  0  0  0  0  0  0  0
    6.2750    1.5000    0.0000 C   0  0  0  0  0  0  0  0  0  0  0  0
    5.6250    2.6250    0.0000 C   0  0  0  0  0  0  0  0  0  0  0  0
    6.9250    1.8750    0.0000 C   0  0  0  0  0  0  0  0  0  0  0  0
    3.0292    1.8750    0.0000 C   0  0  0  0  0  0  0  0  0  0  0  0
    6.2750    3.0000    0.0000 C   0  0  0  0  0  0  0  0  0  0  0  0
    1.7292    2.6250    0.0000 C   0  0  0  0  0  0  0  0  0  0  0  0
    6.9250    2.6250    0.0000 C   0  0  0  0  0  0  0  0  0  0  0  0
    1.0792    3.0000    0.0000 F   0  0  0  0  0  0  0  0  0  0  0  0
    2.3792    1.5000    0.0000 C   0  0  0  0  0  0  0  0  0  0  0  0
    3.0292    2.6250    0.0000 C   0  0  0  0  0  0  0  0  0  0  0  0
    2.3792    3.0000    0.0000 C   0  0  0  0  0  0  0  0  0  0  0  0
    1.7292    1.8750    0.0000 C   0  0  0  0  0  0  0  0  0  0  0  0
    6.2750    0.7500    0.0000 C   0  0  0  0  0  0  0  0  0  0  0  0
    6.2750    3.7500    0.0000 C   0  0  0  0  0  0  0  0  0  0  0  0
  2  1  1  0  0  0  0
  3  2  1  0  0  0  0
  4  1  1  0  0  0  0
  5  1  2  0  0  0  0
  6  3  2  0  0  0  0
  7  3  1  0  0  0  0
  8  6  1  0  0  0  0
  8 12  2  0  0  0  0
  9  4  1  0  0  0  0
 10  7  2  0  0  0  0
 11 16  1  0  0  0  0
 12 10  1  0  0  0  0
 13 11  1  0  0  0  0
 14  9  2  0  0  0  0
 15  9  1  0  0  0  0
 16 15  2  0  0  0  0
 17 14  1  0  0  0  0
 17 11  2  0  0  0  0
 18  6  1  0  0  0  0
 19 10  1  0  0  0  0
M  END
>  <ID>
9059861

>  <Supplier>
ChemBridge

>  <clogP>
3.893000000000000e+000

>  <RB>
2

>  <tPSA>
4.113000000000000e+001

>  <Hacc>
1

>  <Hdon>
2

>  <LogSw>
-4.725000000000000e+000

>  <Group>
2

>  <Core>
514

$$$$
7436343
 OpenBabel03312015312D

 24 26  0  0  0  0  0  0  0  0999 V2000
    5.1375   -1.3167    0.0000 C   0  0  0  0  0  0  0  0  0  0  0  0
    4.7167   -2.5875    0.0000 N   0  0  0  0  0  0  0  0  0  0  0  0
    5.3875   -2.1000    0.0000 C   0  0  0  0  0  0  0  0  0  0  0  0
    4.0500   -2.1042    0.0000 N   0  0  0  0  0  0  0  0  0  0  0  0
    4.3125   -1.3167    0.0000 C   0  0  0  0  0  0  0  0  0  0  0  0
    5.6167   -0.6500    0.0000 C   0  0  0  0  0  0  0  0  0  0  0  0
    8.0792   -0.9042    0.0000 C   0  0  0  0  0  0  0  0  0  0  0  0
    7.5917   -1.5750    0.0000 C   0  0  0  0  0  0  0  0  0  0  0  0
    7.7375   -0.1500    0.0000 C   0  0  0  0  0  0  0  0  0  0  0  0
    6.4375   -0.7375    0.0000 C   0  0  0  0  0  0  0  0  0  0  0  0
    4.7167   -3.4125    0.0000 C   0  0  0  0  0  0  0  0  0  0  0  0
    6.1750   -2.3500    0.0000 O   0  0  0  0  0  0  0  0  0  0  0  0
    6.7750   -1.4917    0.0000 C   0  0  0  0  0  0  0  0  0  0  0  0
    6.9167   -0.0667    0.0000 C   0  0  0  0  0  0  0  0  0  0  0  0
    5.4375   -3.8250    0.0000 C   0  0  0  0  0  0  0  0  0  0  0  0
    4.0042   -3.8250    0.0000 C   0  0  0  0  0  0  0  0  0  0  0  0
    8.2250    0.5208    0.0000 Cl  0  0  0  0  0  0  0  0  0  0  0  0
    7.9292   -2.3292    0.0000 Br  0  0  0  0  0  0  0  0  0  0  0  0
    8.8917   -0.9917    0.0000 O   0  0  0  0  0  0  0  0  0  0  0  0
    4.7167   -5.0625    0.0000 C   0  0  0  0  0  0  0  0  0  0  0  0
    5.4375   -4.6500    0.0000 C   0  0  0  0  0  0  0  0  0  0  0  0
    4.0042   -4.6500    0.0000 C   0  0  0  0  0  0  0  0  0  0  0  0
    4.7125   -5.8875    0.0000 Cl  0  0  0  0  0  0  0  0  0  0  0  0
    3.8250   -0.6542    0.0000 C   0  0  0  0  0  0  0  0  0  0  0  0
  2  3  1  0  0  0  0
  3  1  1  0  0  0  0
  4  5  2  0  0  0  0
  4  2  1  0  0  0  0
  5  1  1  0  0  0  0
  6  1  2  0  0  0  0
  7  9  1  0  0  0  0
  8 13  1  0  0  0  0
  8  7  2  0  0  0  0
  9 14  2  0  0  0  0
 10  6  1  0  0  0  0
 11  2  1  0  0  0  0
 12  3  2  0  0  0  0
 13 10  2  0  0  0  0
 14 10  1  0  0  0  0
 15 11  2  0  0  0  0
 16 11  1  0  0  0  0
 17  9  1  0  0  0  0
 18  8  1  0  0  0  0
 19  7  1  0  0  0  0
 20 22  1  0  0  0  0
 20 21  2  0  0  0  0
 21 15  1  0  0  0  0
 22 16  2  0  0  0  0
 23 20  1  0  0  0  0
 24  5  1  0  0  0  0
M  END
>  <ID>
7436343

>  <Supplier>
ChemBridge

>  <clogP>
4.676000000000000e+000

>  <RB>
2

>  <tPSA>
5.290000000000000e+001

>  <Hacc>
3

>  <Hdon>
1

>  <LogSw>
-7.106999999999998e+000

>  <Group>
1

>  <Core>
046

$$$$
9049825
 OpenBabel03312015312D

 16 17  0  0  0  0  0  0  0  0999 V2000
    3.3250    1.6458    0.0000 S   0  0  0  0  0  0  0  0  0  0  0  0
    4.0417    1.8750    0.0000 C   0  0  0  0  0  0  0  0  0  0  0  0
    4.6417    1.4375    0.0000 C   0  0  0  0  0  0  0  0  0  0  0  0
    5.2542    1.8750    0.0000 N   0  0  0  0  0  0  0  0  0  0  0  0
    4.2667    2.5958    0.0000 C   0  0  0  0  0  0  0  0  0  0  0  0
    5.0167    2.5958    0.0000 N   0  0  0  0  0  0  0  0  0  0  0  0
    2.9167    2.2750    0.0000 N   0  0  0  0  0  0  0  0  0  0  0  0
    2.6667    1.2958    0.0000 O   0  0  0  0  0  0  0  0  0  0  0  0
    3.6167    0.9583    0.0000 O   0  0  0  0  0  0  0  0  0  0  0  0
    2.1667    2.2333    0.0000 C   0  0  0  0  0  0  0  0  0  0  0  0
    4.6417    0.6875    0.0000 C   0  0  0  0  0  0  0  0  0  0  0  0
    5.4625    3.1958    0.0000 C   0  0  0  0  0  0  0  0  0  0  0  0
    1.6917    2.8208    0.0000 C   0  0  0  0  0  0  0  0  0  0  0  0
    1.7625    1.6083    0.0000 C   0  0  0  0  0  0  0  0  0  0  0  0
    1.0375    1.8000    0.0000 C   0  0  0  0  0  0  0  0  0  0  0  0
    0.9917    2.5500    0.0000 C   0  0  0  0  0  0  0  0  0  0  0  0
  2  1  1  0  0  0  0
  3  2  1  0  0  0  0
  4  3  2  0  0  0  0
  5  2  2  0  0  0  0
  6  5  1  0  0  0  0
  6  4  1  0  0  0  0
  7  1  1  0  0  0  0
  8  1  2  0  0  0  0
  9  1  2  0  0  0  0
 10  7  1  0  0  0  0
 11  3  1  0  0  0  0
 12  6  1  0  0  0  0
 13 10  1  0  0  0  0
 14 10  1  0  0  0  0
 15 14  1  0  0  0  0
 16 13  1  0  0  0  0
 16 15  1  0  0  0  0
M  END
>  <ID>
9049825

>  <Supplier>
ChemBridge

>  <clogP>
1.525000000000000e+000

>  <RB>
2

>  <tPSA>
6.399000000000000e+001

>  <Hacc>
4

>  <Hdon>
1

>  <LogSw>
-2.491000000000000e+000

>  <Group>
2

>  <Core>
297

$$$$
7436344
 OpenBabel03312015312D

 28 31  0  0  0  0  0  0  0  0999 V2000
    3.7542   -5.0292    0.0000 C   0  0  0  0  0  0  0  0  0  0  0  0
    3.5667   -6.2292    0.0000 N   0  0  0  0  0  0  0  0  0  0  0  0
    4.1000   -5.6917    0.0000 C   0  0  0  0  0  0  0  0  0  0  0  0
    2.9042   -5.8875    0.0000 N   0  0  0  0  0  0  0  0  0  0  0  0
    3.0167   -5.1542    0.0000 C   0  0  0  0  0  0  0  0  0  0  0  0
    6.0125   -4.6167    0.0000 C   0  0  0  0  0  0  0  0  0  0  0  0
    6.6417   -5.0167    0.0000 C   0  0  0  0  0  0  0  0  0  0  0  0
    4.0875   -4.3625    0.0000 C   0  0  0  0  0  0  0  0  0  0  0  0
    5.3167   -4.8917    0.0000 O   0  0  0  0  0  0  0  0  0  0  0  0
    4.8292   -4.3167    0.0000 C   0  0  0  0  0  0  0  0  0  0  0  0
    3.6875   -6.9667    0.0000 C   0  0  0  0  0  0  0  0  0  0  0  0
    5.9542   -3.8667    0.0000 C   0  0  0  0  0  0  0  0  0  0  0  0
    5.2375   -3.6792    0.0000 C   0  0  0  0  0  0  0  0  0  0  0  0
    4.8375   -5.8167    0.0000 O   0  0  0  0  0  0  0  0  0  0  0  0
    7.3125   -4.6625    0.0000 C   0  0  0  0  0  0  0  0  0  0  0  0
    2.4917   -4.6292    0.0000 O   0  0  0  0  0  0  0  0  0  0  0  0
    6.6167   -5.7667    0.0000 C   0  0  0  0  0  0  0  0  0  0  0  0
    3.1042   -7.4417    0.0000 C   0  0  0  0  0  0  0  0  0  0  0  0
    7.9417   -5.0625    0.0000 C   0  0  0  0  0  0  0  0  0  0  0  0
    7.2542   -6.1625    0.0000 C   0  0  0  0  0  0  0  0  0  0  0  0
    7.3375   -3.9125    0.0000 Cl  0  0  0  0  0  0  0  0  0  0  0  0
    3.2167   -8.1792    0.0000 C   0  0  0  0  0  0  0  0  0  0  0  0
    7.9167   -5.8125    0.0000 C   0  0  0  0  0  0  0  0  0  0  0  0
    7.2292   -6.9125    0.0000 Cl  0  0  0  0  0  0  0  0  0  0  0  0
    4.3875   -7.2417    0.0000 C   0  0  0  0  0  0  0  0  0  0  0  0
    4.5042   -7.9792    0.0000 C   0  0  0  0  0  0  0  0  0  0  0  0
    3.9167   -8.4542    0.0000 C   0  0  0  0  0  0  0  0  0  0  0  0
    2.6375   -8.6542    0.0000 C   0  0  0  0  0  0  0  0  0  0  0  0
  2  3  1  0  0  0  0
  3  1  1  0  0  0  0
  4  5  1  0  0  0  0
  4  2  1  0  0  0  0
  5  1  1  0  0  0  0
  6  9  1  0  0  0  0
  6 12  2  0  0  0  0
  7  6  1  0  0  0  0
  8  1  2  0  0  0  0
  9 10  1  0  0  0  0
 10  8  1  0  0  0  0
 11  2  1  0  0  0  0
 12 13  1  0  0  0  0
 13 10  2  0  0  0  0
 14  3  2  0  0  0  0
 15  7  2  0  0  0  0
 16  5  2  0  0  0  0
 17  7  1  0  0  0  0
 18 11  1  0  0  0  0
 19 15  1  0  0  0  0
 20 17  2  0  0  0  0
 21 15  1  0  0  0  0
 22 18  2  0  0  0  0
 22 27  1  0  0  0  0
 23 20  1  0  0  0  0
 23 19  2  0  0  0  0
 24 20  1  0  0  0  0
 25 11  2  0  0  0  0
 26 25  1  0  0  0  0
 27 26  2  0  0  0  0
 28 22  1  0  0  0  0
M  END
>  <ID>
7436344

>  <Supplier>
ChemBridge

>  <clogP>
5.052000000000000e+000

>  <RB>
3

>  <tPSA>
6.255000000000000e+001

>  <Hacc>
3

>  <Hdon>
1

>  <LogSw>
-6.499000000000001e+000

>  <Group>
1

>  <Core>
048

$$$$
5107098
 OpenBabel03312015312D

 19 21  0  0  0  0  0  0  0  0999 V2000
   -0.6125    0.3958    0.0000 N   0  0  0  0  0  0  0  0  0  0  0  0
   -0.1000    1.0958    0.0000 C   0  0  0  0  0  0  0  0  0  0  0  0
   -0.1000   -0.3667    0.0000 C   0  0  0  0  0  0  0  0  0  0  0  0
    0.7500   -0.0792    0.0000 C   0  0  0  0  0  0  0  0  0  0  0  0
    0.7500    0.8208    0.0000 C   0  0  0  0  0  0  0  0  0  0  0  0
   -1.4625    0.5958    0.0000 C   0  0  3  0  0  0  0  0  0  0  0  0
   -0.3708    1.7833    0.0000 O   0  0  0  0  0  0  0  0  0  0  0  0
   -0.4625   -1.0500    0.0000 O   0  0  0  0  0  0  0  0  0  0  0  0
   -2.3333    0.2958    0.0000 C   0  0  0  0  0  0  0  0  0  0  0  0
    1.5042    1.2500    0.0000 C   0  0  0  0  0  0  0  0  0  0  0  0
    1.5042   -0.5292    0.0000 C   0  0  0  0  0  0  0  0  0  0  0  0
   -1.4625    1.2958    0.0000 C   0  0  0  0  0  0  0  0  0  0  0  0
   -3.1458    0.7625    0.0000 C   0  0  0  0  0  0  0  0  0  0  0  0
   -2.3333   -0.6500    0.0000 C   0  0  0  0  0  0  0  0  0  0  0  0
    2.2875   -0.0917    0.0000 C   0  0  0  0  0  0  0  0  0  0  0  0
    2.2875    0.8208    0.0000 C   0  0  0  0  0  0  0  0  0  0  0  0
   -3.1458   -1.1167    0.0000 C   0  0  0  0  0  0  0  0  0  0  0  0
   -3.9583    0.2958    0.0000 C   0  0  0  0  0  0  0  0  0  0  0  0
   -3.9583   -0.6500    0.0000 C   0  0  0  0  0  0  0  0  0  0  0  0
  2  1  1  0  0  0  0
  3  1  1  0  0  0  0
  4  3  1  0  0  0  0
  4  5  1  0  0  0  0
  5  2  1  0  0  0  0
  6  1  1  0  0  0  0
  7  2  2  0  0  0  0
  8  3  2  0  0  0  0
  9  6  1  0  0  0  0
 10  5  2  0  0  0  0
 11  4  2  0  0  0  0
 12  6  1  0  0  0  0
 13  9  1  0  0  0  0
 14  9  2  0  0  0  0
 15 11  1  0  0  0  0
 15 16  2  0  0  0  0
 16 10  1  0  0  0  0
 17 14  1  0  0  0  0
 18 13  2  0  0  0  0
 18 19  1  0  0  0  0
 19 17  2  0  0  0  0
M  END
>  <ID>
5107098

>  <Supplier>
ChemBridge

>  <clogP>
3.590000000000000e+000

>  <RB>
2

>  <tPSA>
3.738000000000000e+001

>  <Hacc>
2

>  <Hdon>
0

>  <LogSw>
-4.099000000000000e+000

>  <Group>
3

$$$$
7577530
 OpenBabel03312015312D

 30 33  0  0  0  0  0  0  0  0999 V2000
    0.8917   -2.0542    0.0000 C   0  0  0  0  0  0  0  0  0  0  0  0
    0.4500   -2.6667    0.0000 N   0  0  0  0  0  0  0  0  0  0  0  0
    1.6417   -2.0542    0.0000 C   0  0  0  0  0  0  0  0  0  0  0  0
    0.4500   -1.4500    0.0000 S   0  0  0  0  0  0  0  0  0  0  0  0
    4.2667   -0.1042    0.0000 N   0  0  0  0  0  0  0  0  0  0  0  0
    3.8917   -0.7542    0.0000 C   0  0  0  0  0  0  0  0  0  0  0  0
    5.0167   -0.1042    0.0000 C   0  0  0  0  0  0  0  0  0  0  0  0
   -0.2708   -2.4375    0.0000 C   0  0  0  0  0  0  0  0  0  0  0  0
   -0.2708   -1.6792    0.0000 C   0  0  0  0  0  0  0  0  0  0  0  0
    3.1417   -0.7542    0.0000 N   0  0  0  0  0  0  0  0  0  0  0  0
    2.0167   -2.7042    0.0000 C   0  0  0  0  0  0  0  0  0  0  0  0
    2.0167   -1.4042    0.0000 C   0  0  0  0  0  0  0  0  0  0  0  0
    4.2667   -1.4042    0.0000 S   0  0  0  0  0  0  0  0  0  0  0  0
    5.3917    0.5458    0.0000 C   0  0  0  0  0  0  0  0  0  0  0  0
    2.7667   -1.4042    0.0000 C   0  0  0  0  0  0  0  0  0  0  0  0
    5.3917   -0.7542    0.0000 O   0  0  0  0  0  0  0  0  0  0  0  0
    2.7667   -2.7042    0.0000 C   0  0  0  0  0  0  0  0  0  0  0  0
    5.0167    1.1875    0.0000 C   0  0  0  0  0  0  0  0  0  0  0  0
    6.1417    0.5458    0.0000 C   0  0  0  0  0  0  0  0  0  0  0  0
    3.1417   -2.0542    0.0000 C   0  0  0  0  0  0  0  0  0  0  0  0
    6.5167    1.1958    0.0000 C   0  0  0  0  0  0  0  0  0  0  0  0
    5.3917    1.8375    0.0000 C   0  0  0  0  0  0  0  0  0  0  0  0
    1.6417   -3.3542    0.0000 O   0  0  0  0  0  0  0  0  0  0  0  0
    6.1417    1.8375    0.0000 C   0  0  0  0  0  0  0  0  0  0  0  0
   -0.9208   -2.8125    0.0000 C   0  0  0  0  0  0  0  0  0  0  0  0
   -0.9208   -1.3042    0.0000 C   0  0  0  0  0  0  0  0  0  0  0  0
    6.5167    2.4875    0.0000 C   0  0  0  0  0  0  0  0  0  0  0  0
    7.2667    2.4875    0.0000 C   0  0  0  0  0  0  0  0  0  0  0  0
   -1.5708   -1.6792    0.0000 C   0  0  0  0  0  0  0  0  0  0  0  0
   -1.5708   -2.4375    0.0000 C   0  0  0  0  0  0  0  0  0  0  0  0
  2  1  2  0  0  0  0
  3  1  1  0  0  0  0
  4  1  1  0  0  0  0
  5  6  1  0  0  0  0
  6 10  1  0  0  0  0
  7  5  1  0  0  0  0
  8  2  1  0  0  0  0
  9  4  1  0  0  0  0
  9  8  2  0  0  0  0
 10 15  1  0  0  0  0
 11  3  1  0  0  0  0
 12  3  2  0  0  0  0
 13  6  2  0  0  0  0
 14  7  1  0  0  0  0
 15 12  1  0  0  0  0
 16  7  2  0  0  0  0
 17 11  2  0  0  0  0
 17 20  1  0  0  0  0
 18 14  2  0  0  0  0
 19 14  1  0  0  0  0
 20 15  2  0  0  0  0
 21 19  2  0  0  0  0
 22 18  1  0  0  0  0
 23 11  1  0  0  0  0
 24 21  1  0  0  0  0
 24 22  2  0  0  0  0
 25  8  1  0  0  0  0
 26  9  1  0  0  0  0
 27 24  1  0  0  0  0
 28 27  1  0  0  0  0
 29 26  2  0  0  0  0
 29 30  1  0  0  0  0
 30 25  2  0  0  0  0
M  END
>  <ID>
7577530

>  <Supplier>
ChemBridge

>  <clogP>
4.872000000000000e+000

>  <RB>
3

>  <tPSA>
7.425000000000000e+001

>  <Hacc>
3

>  <Hdon>
3

>  <LogSw>
-6.876000000000000e+000

>  <Group>
1

>  <Core>
262

$$$$
7577533
 OpenBabel03312015312D

 19 22  0  0  0  0  0  0  0  0999 V2000
    0.0917   -0.4000    0.0000 N   0  0  0  0  0  0  0  0  0  0  0  0
   -0.5333   -0.8125    0.0000 C   0  0  3  0  0  0  0  0  0  0  0  0
    0.7625   -0.7292    0.0000 C   0  0  0  0  0  0  0  0  0  0  0  0
   -1.2125   -0.5292    0.0000 C   0  0  3  0  0  0  0  0  0  0  0  0
   -0.5375   -1.5542    0.0000 C   0  0  3  0  0  0  0  0  0  0  0  0
    1.3875   -0.3167    0.0000 C   0  0  0  0  0  0  0  0  0  0  0  0
   -1.8625   -1.4875    0.0000 C   0  0  3  0  0  0  0  0  0  0  0  0
   -1.7208   -1.9042    0.0000 C   0  0  3  0  0  0  0  0  0  0  0  0
   -1.2208   -1.7250    0.0000 C   0  0  0  0  0  0  0  0  0  0  0  0
   -1.7208   -1.1292    0.0000 C   0  0  0  0  0  0  0  0  0  0  0  0
   -1.0333   -2.1792    0.0000 C   0  0  0  0  0  0  0  0  0  0  0  0
   -1.8708   -0.7667    0.0000 C   0  0  0  0  0  0  0  0  0  0  0  0
    0.8125   -1.4792    0.0000 O   0  0  0  0  0  0  0  0  0  0  0  0
    1.9667    0.8458    0.0000 N   0  0  0  0  0  0  0  0  0  0  0  0
   -2.4458   -2.1042    0.0000 C   0  0  0  0  0  0  0  0  0  0  0  0
    1.3417    0.4333    0.0000 C   0  0  0  0  0  0  0  0  0  0  0  0
    2.0625   -0.6542    0.0000 C   0  0  0  0  0  0  0  0  0  0  0  0
    2.6375    0.5125    0.0000 C   0  0  0  0  0  0  0  0  0  0  0  0
    2.6875   -0.2375    0.0000 C   0  0  0  0  0  0  0  0  0  0  0  0
  2  1  1  0  0  0  0
  3  1  1  0  0  0  0
  4  2  1  0  0  0  0
  5  2  1  0  0  0  0
  6  3  1  0  0  0  0
  7  9  1  0  0  0  0
  8 11  1  0  0  0  0
  9  5  1  0  0  0  0
 10  4  1  0  0  0  0
 10  8  1  0  0  0  0
 11  5  1  0  0  0  0
 12  4  1  0  0  0  0
 12  7  1  0  0  0  0
 13  3  2  0  0  0  0
 14 16  1  0  0  0  0
 15  8  1  0  0  0  0
 15  7  1  0  0  0  0
 16  6  2  0  0  0  0
 17  6  1  0  0  0  0
 18 19  1  0  0  0  0
 18 14  2  0  0  0  0
 19 17  2  0  0  0  0
M  END
>  <ID>
7577533

>  <Supplier>
ChemBridge

>  <clogP>
2.767000000000000e+000

>  <RB>
2

>  <tPSA>
4.199000000000000e+001

>  <Hacc>
2

>  <Hdon>
1

>  <LogSw>
-3.672000000000000e+000

>  <Group>
3

$$$$
9124791
 OpenBabel03312015312D

 21 23  0  0  0  0  0  0  0  0999 V2000
    2.6292    4.0667    0.0000 S   0  0  0  0  0  0  0  0  0  0  0  0
    2.2542    3.4208    0.0000 N   0  0  0  0  0  0  0  0  0  0  0  0
    3.3792    4.0667    0.0000 C   0  0  0  0  0  0  0  0  0  0  0  0
    2.6292    2.7708    0.0000 C   0  0  0  0  0  0  0  0  0  0  0  0
    3.3792    2.7708    0.0000 C   0  0  0  0  0  0  0  0  0  0  0  0
    3.7542    3.4208    0.0000 C   0  0  0  0  0  0  0  0  0  0  0  0
    1.5042    3.4208    0.0000 C   0  0  0  0  0  0  0  0  0  0  0  0
    2.7542    4.8042    0.0000 O   0  0  0  0  0  0  0  0  0  0  0  0
    1.9250    4.3250    0.0000 O   0  0  0  0  0  0  0  0  0  0  0  0
    1.1292    2.7708    0.0000 C   0  0  0  0  0  0  0  0  0  0  0  0
    2.2542    2.1250    0.0000 C   0  0  0  0  0  0  0  0  0  0  0  0
    3.7542    2.1250    0.0000 C   0  0  0  0  0  0  0  0  0  0  0  0
    0.3792    2.7708    0.0000 O   0  0  0  0  0  0  0  0  0  0  0  0
    3.3792    1.4750    0.0000 C   0  0  0  0  0  0  0  0  0  0  0  0
    1.5042    2.1250    0.0000 N   0  0  0  0  0  0  0  0  0  0  0  0
    2.6292    1.4750    0.0000 C   0  0  0  0  0  0  0  0  0  0  0  0
    3.7542    0.8250    0.0000 Cl  0  0  0  0  0  0  0  0  0  0  0  0
    3.7542    4.7167    0.0000 C   0  0  0  0  0  0  0  0  0  0  0  0
    4.5042    3.4208    0.0000 C   0  0  0  0  0  0  0  0  0  0  0  0
    4.8792    4.0667    0.0000 C   0  0  0  0  0  0  0  0  0  0  0  0
    4.5042    4.7167    0.0000 C   0  0  0  0  0  0  0  0  0  0  0  0
  2  1  1  0  0  0  0
  3  1  1  0  0  0  0
  4  2  1  0  0  0  0
  4  5  2  0  0  0  0
  5  6  1  0  0  0  0
  6  3  2  0  0  0  0
  7  2  1  0  0  0  0
  8  1  2  0  0  0  0
  9  1  2  0  0  0  0
 10  7  1  0  0  0  0
 11  4  1  0  0  0  0
 12  5  1  0  0  0  0
 13 10  2  0  0  0  0
 14 12  2  0  0  0  0
 15 10  1  0  0  0  0
 16 11  2  0  0  0  0
 16 14  1  0  0  0  0
 17 14  1  0  0  0  0
 18  3  1  0  0  0  0
 19  6  1  0  0  0  0
 19 20  2  0  0  0  0
 20 21  1  0  0  0  0
 21 18  2  0  0  0  0
M  END
>  <ID>
9124791

>  <Supplier>
ChemBridge

>  <clogP>
2.500000000000000e+000

>  <RB>
2

>  <tPSA>
8.046999999999999e+001

>  <Hacc>
3

>  <Hdon>
1

>  <LogSw>
-4.226000000000000e+000

>  <Group>
2

>  <Core>
516

$$$$
7577535
 OpenBabel03312015312D

 30 32  0  0  0  0  0  0  0  0999 V2000
    5.8417   -2.3125    0.0000 N   0  0  0  0  0  0  0  0  0  0  0  0
    6.5125   -2.8042    0.0000 C   0  0  0  0  0  0  0  0  0  0  0  0
    6.0917   -1.5250    0.0000 C   0  0  0  0  0  0  0  0  0  0  0  0
    7.1875   -2.3167    0.0000 N   0  0  0  0  0  0  0  0  0  0  0  0
    6.9292   -1.5292    0.0000 N   0  0  0  0  0  0  0  0  0  0  0  0
    5.4667    0.5708    0.0000 C   0  0  0  0  0  0  0  0  0  0  0  0
    6.5042   -3.6375    0.0000 S   0  0  0  0  0  0  0  0  0  0  0  0
    3.6042   -5.3292    0.0000 C   0  0  0  0  0  0  0  0  0  0  0  0
    5.9542   -0.0917    0.0000 N   0  0  0  0  0  0  0  0  0  0  0  0
    4.6417    0.4958    0.0000 C   0  0  0  0  0  0  0  0  0  0  0  0
    4.5542   -3.6500    0.0000 C   0  0  0  0  0  0  0  0  0  0  0  0
    3.6000   -4.2125    0.0000 N   0  0  0  0  0  0  0  0  0  0  0  0
    5.6125   -0.8500    0.0000 C   0  0  0  0  0  0  0  0  0  0  0  0
    4.5667   -5.8917    0.0000 C   0  0  0  0  0  0  0  0  0  0  0  0
    2.6417   -5.9042    0.0000 C   0  0  0  0  0  0  0  0  0  0  0  0
    2.6417   -7.0167    0.0000 C   0  0  0  0  0  0  0  0  0  0  0  0
    4.5750   -7.0125    0.0000 C   0  0  0  0  0  0  0  0  0  0  0  0
    3.6125   -7.5625    0.0000 C   0  0  0  0  0  0  0  0  0  0  0  0
    5.8125    1.3333    0.0000 O   0  0  0  0  0  0  0  0  0  0  0  0
    4.5542   -2.5167    0.0000 O   0  0  0  0  0  0  0  0  0  0  0  0
    4.3000   -0.2667    0.0000 C   0  0  0  0  0  0  0  0  0  0  0  0
    5.5292   -4.1917    0.0000 C   0  0  0  0  0  0  0  0  0  0  0  0
    5.0500   -2.5667    0.0000 C   0  0  0  0  0  0  0  0  0  0  0  0
    5.5417   -7.5542    0.0000 Cl  0  0  0  0  0  0  0  0  0  0  0  0
    1.6792   -7.5792    0.0000 Cl  0  0  0  0  0  0  0  0  0  0  0  0
    4.1542    1.1708    0.0000 C   0  0  0  0  0  0  0  0  0  0  0  0
    4.7792   -0.9375    0.0000 C   0  0  0  0  0  0  0  0  0  0  0  0
    3.4667   -0.3500    0.0000 C   0  0  0  0  0  0  0  0  0  0  0  0
    3.3292    1.0875    0.0000 C   0  0  0  0  0  0  0  0  0  0  0  0
    2.9875    0.3333    0.0000 C   0  0  0  0  0  0  0  0  0  0  0  0
  2  1  1  0  0  0  0
  3  1  1  0  0  0  0
  4  2  2  0  0  0  0
  5  3  2  0  0  0  0
  5  4  1  0  0  0  0
  6  9  1  0  0  0  0
  7  2  1  0  0  0  0
  8 12  1  0  0  0  0
  9 13  1  0  0  0  0
 10  6  1  0  0  0  0
 11 22  1  0  0  0  0
 12 11  1  0  0  0  0
 13  3  1  0  0  0  0
 14  8  2  0  0  0  0
 15  8  1  0  0  0  0
 16 15  2  0  0  0  0
 17 14  1  0  0  0  0
 18 16  1  0  0  0  0
 18 17  2  0  0  0  0
 19  6  2  0  0  0  0
 20 11  2  0  0  0  0
 21 10  1  0  0  0  0
 22  7  1  0  0  0  0
 23  1  1  0  0  0  0
 24 17  1  0  0  0  0
 25 16  1  0  0  0  0
 26 10  2  0  0  0  0
 27 21  1  0  0  0  0
 28 21  2  0  0  0  0
 28 30  1  0  0  0  0
 29 26  1  0  0  0  0
 30 29  2  0  0  0  0
M  END
>  <ID>
7577535

>  <Supplier>
ChemBridge

>  <clogP>
2.757000000000000e+000

>  <RB>
7

>  <tPSA>
8.891000000000000e+001

>  <Hacc>
5

>  <Hdon>
2

>  <LogSw>
-5.958000000000000e+000

>  <Group>
3

>  <Core>
009

$$$$
5107091
 OpenBabel03312015312D

 22 23  0  0  0  0  0  0  0  0999 V2000
    3.9042    0.4625    0.0000 N   0  3  0  0  0  0  0  0  0  0  0  0
    1.5500    1.8708    0.0000 C   0  0  0  0  0  0  0  0  0  0  0  0
    0.9792    1.5625    0.0000 N   0  0  0  0  0  0  0  0  0  0  0  0
    3.3375    0.8000    0.0000 C   0  0  0  0  0  0  0  0  0  0  0  0
    2.1917    1.4833    0.0000 C   0  0  0  0  0  0  0  0  0  0  0  0
    3.9667   -0.2167    0.0000 O   0  5  0  0  0  0  0  0  0  0  0  0
    4.5042    0.7458    0.0000 O   0  0  0  0  0  0  0  0  0  0  0  0
    0.4292    1.8958    0.0000 C   0  0  0  0  0  0  0  0  0  0  0  0
    1.5792    2.4833    0.0000 O   0  0  0  0  0  0  0  0  0  0  0  0
    2.7542    0.4708    0.0000 C   0  0  0  0  0  0  0  0  0  0  0  0
    3.3542    1.4625    0.0000 C   0  0  0  0  0  0  0  0  0  0  0  0
    2.8042    1.8000    0.0000 C   0  0  0  0  0  0  0  0  0  0  0  0
    2.1917    0.8208    0.0000 C   0  0  0  0  0  0  0  0  0  0  0  0
    0.9667    0.8625    0.0000 C   0  0  0  0  0  0  0  0  0  0  0  0
   -0.1500    1.5708    0.0000 C   0  0  0  0  0  0  0  0  0  0  0  0
    1.6667    0.4333    0.0000 C   0  0  0  0  0  0  0  0  0  0  0  0
    0.2792    0.4958    0.0000 C   0  0  0  0  0  0  0  0  0  0  0  0
   -0.1500    0.9125    0.0000 C   0  0  0  0  0  0  0  0  0  0  0  0
   -0.7333    1.9125    0.0000 C   0  0  0  0  0  0  0  0  0  0  0  0
   -0.7333    0.5708    0.0000 C   0  0  0  0  0  0  0  0  0  0  0  0
   -1.3125    1.5708    0.0000 C   0  0  0  0  0  0  0  0  0  0  0  0
   -1.3125    0.9125    0.0000 C   0  0  0  0  0  0  0  0  0  0  0  0
  2  5  1  0  0  0  0
  3  2  1  0  0  0  0
  4  1  1  0  0  0  0
  5 12  1  0  0  0  0
  6  1  1  0  0  0  0
  7  1  2  0  0  0  0
  8  3  1  0  0  0  0
  9  2  2  0  0  0  0
 10  4  2  0  0  0  0
 11  4  1  0  0  0  0
 12 11  2  0  0  0  0
 13 10  1  0  0  0  0
 13  5  2  0  0  0  0
 14  3  1  0  0  0  0
 15  8  1  0  0  0  0
 16 14  1  0  0  0  0
 17 14  1  0  0  0  0
 18 15  2  0  0  0  0
 19 15  1  0  0  0  0
 20 18  1  0  0  0  0
 20 22  2  0  0  0  0
 21 19  2  0  0  0  0
 22 21  1  0  0  0  0
M  CHG  2   1   1   6  -1
M  END
>  <ID>
5107091

>  <Supplier>
ChemBridge

>  <clogP>
3.530000000000000e+000

>  <RB>
3

>  <tPSA>
6.345000000000000e+001

>  <Hacc>
3

>  <Hdon>
0

>  <LogSw>
-4.781000000000002e+000

>  <Group>
1

>  <Core>
512

$$$$
5554649
 OpenBabel03312015312D

 17 18  0  0  0  0  0  0  0  0999 V2000
   -2.8833   -1.4375    0.0000 C   0  0  0  0  0  0  0  0  0  0  0  0
   -4.2083   -2.2167    0.0000 C   0  0  0  0  0  0  0  0  0  0  0  0
   -1.6000   -2.2000    0.0000 N   0  0  0  0  0  0  0  0  0  0  0  0
   -4.2083   -3.7375    0.0000 N   0  0  0  0  0  0  0  0  0  0  0  0
    1.0000    0.8208    0.0000 C   0  0  0  0  0  0  0  0  0  0  0  0
   -0.3000   -1.4375    0.0000 C   0  0  0  0  0  0  0  0  0  0  0  0
   -2.9000    0.0833    0.0000 O   0  0  0  0  0  0  0  0  0  0  0  0
   -0.3000    0.0833    0.0000 C   0  0  0  0  0  0  0  0  0  0  0  0
    2.3167    0.0833    0.0000 C   0  0  0  0  0  0  0  0  0  0  0  0
   -6.7792   -2.2167    0.0000 N   0  0  0  0  0  0  0  0  0  0  0  0
    2.3167   -1.4375    0.0000 C   0  0  0  0  0  0  0  0  0  0  0  0
   -5.4833   -1.4792    0.0000 C   0  0  0  0  0  0  0  0  0  0  0  0
    1.0167   -2.2000    0.0000 C   0  0  0  0  0  0  0  0  0  0  0  0
   -5.4833   -4.4792    0.0000 C   0  0  0  0  0  0  0  0  0  0  0  0
   -6.7792   -3.7375    0.0000 C   0  0  0  0  0  0  0  0  0  0  0  0
    0.9792    2.3208    0.0000 C   0  0  0  0  0  0  0  0  0  0  0  0
    3.6375    0.8458    0.0000 C   0  0  0  0  0  0  0  0  0  0  0  0
  2  1  1  0  0  0  0
  3  1  1  0  0  0  0
  4  2  1  0  0  0  0
  5  8  1  0  0  0  0
  6  3  1  0  0  0  0
  7  1  2  0  0  0  0
  8  6  2  0  0  0  0
  9 11  1  0  0  0  0
  9  5  2  0  0  0  0
 10 12  1  0  0  0  0
 11 13  2  0  0  0  0
 12  2  2  0  0  0  0
 13  6  1  0  0  0  0
 14  4  2  0  0  0  0
 14 15  1  0  0  0  0
 15 10  2  0  0  0  0
 16  5  1  0  0  0  0
 17  9  1  0  0  0  0
M  END
>  <ID>
5554649

>  <Supplier>
ChemBridge

>  <clogP>
2.370000000000000e+000

>  <RB>
2

>  <tPSA>
5.488000000000000e+001

>  <Hacc>
3

>  <Hdon>
1

>  <LogSw>
-2.882000000000000e+000

>  <Group>
3

$$$$
6390955
 OpenBabel03312015312D

 30 32  0  0  0  0  0  0  0  0999 V2000
    0.8500    0.6708    0.0000 C   0  0  0  0  0  0  0  0  0  0  0  0
   -0.1500    1.2708    0.0000 C   0  0  0  0  0  0  0  0  0  0  0  0
    1.2000    1.2500    0.0000 C   0  0  0  0  0  0  0  0  0  0  0  0
    0.1667    0.6833    0.0000 N   0  0  0  0  0  0  0  0  0  0  0  0
   -0.8333    1.2833    0.0000 C   0  0  0  0  0  0  0  0  0  0  0  0
    1.8667    1.2500    0.0000 N   0  0  0  0  0  0  0  0  0  0  0  0
    1.1792    0.0833    0.0000 C   0  0  0  0  0  0  0  0  0  0  0  0
    0.2542   -2.8500    0.0000 C   0  0  0  0  0  0  0  0  0  0  0  0
   -1.1958    1.8708    0.0000 C   0  0  0  0  0  0  0  0  0  0  0  0
    0.1875    1.8458    0.0000 O   0  0  0  0  0  0  0  0  0  0  0  0
    0.8667    1.8458    0.0000 O   0  0  0  0  0  0  0  0  0  0  0  0
   -0.1125   -2.2875    0.0000 O   0  0  0  0  0  0  0  0  0  0  0  0
   -0.0500   -3.4375    0.0000 O   0  0  0  0  0  0  0  0  0  0  0  0
    0.8375   -0.5000    0.0000 C   0  0  0  0  0  0  0  0  0  0  0  0
    3.2167    1.2458    0.0000 O   0  0  0  0  0  0  0  0  0  0  0  0
    0.1875   -1.6875    0.0000 C   0  0  0  0  0  0  0  0  0  0  0  0
   -0.8708    2.4625    0.0000 Cl  0  0  0  0  0  0  0  0  0  0  0  0
   -1.1708    0.6958    0.0000 C   0  0  0  0  0  0  0  0  0  0  0  0
    1.1792   -1.0667    0.0000 C   0  0  0  0  0  0  0  0  0  0  0  0
    0.1500   -0.5042    0.0000 C   0  0  0  0  0  0  0  0  0  0  0  0
   -0.1625   -1.1000    0.0000 C   0  0  0  0  0  0  0  0  0  0  0  0
    0.8542   -1.6667    0.0000 C   0  0  0  0  0  0  0  0  0  0  0  0
    2.2042    1.8208    0.0000 C   0  0  0  0  0  0  0  0  0  0  0  0
    2.1917    0.6708    0.0000 C   0  0  0  0  0  0  0  0  0  0  0  0
    0.9292   -2.8042    0.0000 C   0  0  0  0  0  0  0  0  0  0  0  0
    2.8792    1.8125    0.0000 C   0  0  0  0  0  0  0  0  0  0  0  0
    2.8667    0.6625    0.0000 C   0  0  0  0  0  0  0  0  0  0  0  0
   -1.8708    1.8708    0.0000 C   0  0  0  0  0  0  0  0  0  0  0  0
   -1.8833    0.6833    0.0000 C   0  0  0  0  0  0  0  0  0  0  0  0
   -2.2208    1.2958    0.0000 C   0  0  0  0  0  0  0  0  0  0  0  0
  2  4  1  0  0  0  0
  3  1  1  0  0  0  0
  4  1  1  0  0  0  0
  5  2  1  0  0  0  0
  6  3  1  0  0  0  0
  7  1  2  0  0  0  0
  8 12  1  0  0  0  0
  9  5  2  0  0  0  0
 10  2  2  0  0  0  0
 11  3  2  0  0  0  0
 12 16  1  0  0  0  0
 13  8  2  0  0  0  0
 14  7  1  0  0  0  0
 15 27  1  0  0  0  0
 15 26  1  0  0  0  0
 16 21  2  0  0  0  0
 17  9  1  0  0  0  0
 18  5  1  0  0  0  0
 19 14  1  0  0  0  0
 20 14  2  0  0  0  0
 21 20  1  0  0  0  0
 22 19  2  0  0  0  0
 22 16  1  0  0  0  0
 23  6  1  0  0  0  0
 24  6  1  0  0  0  0
 25  8  1  0  0  0  0
 26 23  1  0  0  0  0
 27 24  1  0  0  0  0
 28  9  1  0  0  0  0
 28 30  2  0  0  0  0
 29 18  2  0  0  0  0
 30 29  1  0  0  0  0
M  END
>  <ID>
6390955

>  <Supplier>
ChemBridge

>  <clogP>
2.250000000000000e+000

>  <RB>
6

>  <tPSA>
8.494000000000000e+001

>  <Hacc>
5

>  <Hdon>
1

>  <LogSw>
-4.248000000000000e+000

>  <Group>
2

>  <Core>
008

$$$$
5554642
 OpenBabel03312015312D

 25 28  0  0  0  0  0  0  0  0999 V2000
   -0.6000    1.3958    0.0000 C   0  0  0  0  0  0  0  0  0  0  0  0
   -1.2833    1.7958    0.0000 N   0  0  0  0  0  0  0  0  0  0  0  0
   -1.9708    1.3958    0.0000 C   0  0  0  0  0  0  0  0  0  0  0  0
    0.0792    1.7833    0.0000 N   0  0  0  0  0  0  0  0  0  0  0  0
    1.4000    2.5708    0.0000 N   0  0  0  0  0  0  0  0  0  0  0  0
   -1.9708    0.6000    0.0000 C   0  0  0  0  0  0  0  0  0  0  0  0
   -1.2833    0.2125    0.0000 C   0  0  0  0  0  0  0  0  0  0  0  0
   -0.6000    0.6000    0.0000 C   0  0  0  0  0  0  0  0  0  0  0  0
   -2.6500    1.7708    0.0000 C   0  0  0  0  0  0  0  0  0  0  0  0
   -2.6500    0.2000    0.0000 C   0  0  0  0  0  0  0  0  0  0  0  0
    0.0792    2.5625    0.0000 C   0  0  0  0  0  0  0  0  0  0  0  0
    0.7542    1.4125    0.0000 C   0  0  0  0  0  0  0  0  0  0  0  0
    0.7542    2.9583    0.0000 C   0  0  0  0  0  0  0  0  0  0  0  0
    1.4000    1.7708    0.0000 C   0  0  0  0  0  0  0  0  0  0  0  0
    2.0792    2.9583    0.0000 C   0  0  0  0  0  0  0  0  0  0  0  0
   -3.3458    1.3958    0.0000 C   0  0  0  0  0  0  0  0  0  0  0  0
   -3.3458    0.6000    0.0000 C   0  0  0  0  0  0  0  0  0  0  0  0
   -4.0208    1.7833    0.0000 O   0  0  0  0  0  0  0  0  0  0  0  0
   -1.2833   -0.5667    0.0000 C   0  0  0  0  0  0  0  0  0  0  0  0
    2.7500    2.5708    0.0000 C   0  0  0  0  0  0  0  0  0  0  0  0
    2.0792    3.7458    0.0000 C   0  0  0  0  0  0  0  0  0  0  0  0
   -4.0000    2.5500    0.0000 C   0  0  0  0  0  0  0  0  0  0  0  0
    2.7500    4.1292    0.0000 C   0  0  0  0  0  0  0  0  0  0  0  0
    3.4042    2.9583    0.0000 C   0  0  0  0  0  0  0  0  0  0  0  0
    3.4042    3.7458    0.0000 C   0  0  0  0  0  0  0  0  0  0  0  0
  2  1  2  0  0  0  0
  3  2  1  0  0  0  0
  4  1  1  0  0  0  0
  5 14  1  0  0  0  0
  6  7  1  0  0  0  0
  6  3  2  0  0  0  0
  7  8  2  0  0  0  0
  8  1  1  0  0  0  0
  9  3  1  0  0  0  0
 10  6  1  0  0  0  0
 11  4  1  0  0  0  0
 12  4  1  0  0  0  0
 13 11  1  0  0  0  0
 13  5  1  0  0  0  0
 14 12  1  0  0  0  0
 15  5  1  0  0  0  0
 16  9  2  0  0  0  0
 17 10  2  0  0  0  0
 17 16  1  0  0  0  0
 18 16  1  0  0  0  0
 19  7  1  0  0  0  0
 20 15  2  0  0  0  0
 21 15  1  0  0  0  0
 22 18  1  0  0  0  0
 23 21  2  0  0  0  0
 24 20  1  0  0  0  0
 25 23  1  0  0  0  0
 25 24  2  0  0  0  0
M  END
>  <ID>
5554642

>  <Supplier>
ChemBridge

>  <clogP>
5.270000000000001e+000

>  <RB>
2

>  <tPSA>
2.860000000000000e+001

>  <Hacc>
2

>  <Hdon>
0

>  <LogSw>
-6.132000000000000e+000

>  <Group>
3

>  <Core>
421

$$$$
5554640
 OpenBabel03312015312D

 18 19  0  0  0  0  0  0  0  0999 V2000
   -2.4708    2.5208    0.0000 C   0  0  0  0  0  0  0  0  0  0  0  0
   -1.8458    2.1500    0.0000 N   0  0  0  0  0  0  0  0  0  0  0  0
    0.7792    1.4458    0.0000 N   0  0  0  0  0  0  0  0  0  0  0  0
   -2.4958    3.2500    0.0000 O   0  0  0  0  0  0  0  0  0  0  0  0
   -3.7708    2.4958    0.0000 O   0  0  0  0  0  0  0  0  0  0  0  0
   -3.1125    2.1458    0.0000 C   0  0  0  0  0  0  0  0  0  0  0  0
   -1.2000    2.5333    0.0000 C   0  0  0  0  0  0  0  0  0  0  0  0
   -4.3958    2.1208    0.0000 C   0  0  0  0  0  0  0  0  0  0  0  0
   -0.5333    2.1833    0.0000 C   0  0  0  0  0  0  0  0  0  0  0  0
    0.1375    1.0625    0.0000 C   0  0  0  0  0  0  0  0  0  0  0  0
    0.7500    2.1958    0.0000 C   0  0  0  0  0  0  0  0  0  0  0  0
   -0.5333    1.4458    0.0000 C   0  0  0  0  0  0  0  0  0  0  0  0
    0.1042    2.5625    0.0000 C   0  0  0  0  0  0  0  0  0  0  0  0
   -5.0500    2.4833    0.0000 C   0  0  0  0  0  0  0  0  0  0  0  0
   -4.3958    1.3958    0.0000 C   0  0  0  0  0  0  0  0  0  0  0  0
   -5.6708    2.1125    0.0000 C   0  0  0  0  0  0  0  0  0  0  0  0
   -5.0208    1.0208    0.0000 C   0  0  0  0  0  0  0  0  0  0  0  0
   -5.6708    1.3708    0.0000 C   0  0  0  0  0  0  0  0  0  0  0  0
  2  1  1  0  0  0  0
  3 11  2  0  0  0  0
  3 10  1  0  0  0  0
  4  1  2  0  0  0  0
  5  6  1  0  0  0  0
  6  1  1  0  0  0  0
  7  2  1  0  0  0  0
  8  5  1  0  0  0  0
  9  7  1  0  0  0  0
 10 12  2  0  0  0  0
 11 13  1  0  0  0  0
 12  9  1  0  0  0  0
 13  9  2  0  0  0  0
 14  8  2  0  0  0  0
 15  8  1  0  0  0  0
 16 14  1  0  0  0  0
 17 15  2  0  0  0  0
 18 17  1  0  0  0  0
 18 16  2  0  0  0  0
M  END
>  <ID>
5554640

>  <Supplier>
ChemBridge

>  <clogP>
1.200000000000000e+000

>  <RB>
5

>  <tPSA>
5.121999999999999e+001

>  <Hacc>
3

>  <Hdon>
1

>  <LogSw>
-6.930000000000002e-001

>  <Group>
3

>  <Core>
315

$$$$
5554641
 OpenBabel03312015312D

 22 23  0  0  0  0  0  0  0  0999 V2000
   -2.1333   -0.3375    0.0000 C   0  0  0  0  0  0  0  0  0  0  0  0
   -2.5708   -1.1000    0.0000 C   0  0  0  0  0  0  0  0  0  0  0  0
   -2.1125   -1.8792    0.0000 N   0  3  0  0  0  0  0  0  0  0  0  0
   -4.7708   -0.3375    0.0000 N   0  3  0  0  0  0  0  0  0  0  0  0
   -1.2500   -0.3375    0.0000 C   0  0  0  0  0  0  0  0  0  0  0  0
   -3.4500   -1.1000    0.0000 C   0  0  0  0  0  0  0  0  0  0  0  0
   -3.8958   -0.3375    0.0000 C   0  0  0  0  0  0  0  0  0  0  0  0
   -0.8125   -1.1000    0.0000 N   0  0  0  0  0  0  0  0  0  0  0  0
   -2.5708    0.4208    0.0000 C   0  0  0  0  0  0  0  0  0  0  0  0
   -2.5500   -2.6375    0.0000 O   0  5  0  0  0  0  0  0  0  0  0  0
   -5.2208    0.4208    0.0000 O   0  5  0  0  0  0  0  0  0  0  0  0
   -1.2333   -1.8792    0.0000 O   0  0  0  0  0  0  0  0  0  0  0  0
   -5.2208   -1.1000    0.0000 O   0  0  0  0  0  0  0  0  0  0  0  0
   -0.8125    0.4208    0.0000 O   0  0  0  0  0  0  0  0  0  0  0  0
   -3.4500    0.4208    0.0000 C   0  0  0  0  0  0  0  0  0  0  0  0
    0.0875   -1.1000    0.0000 C   0  0  0  0  0  0  0  0  0  0  0  0
    1.8500   -1.1000    0.0000 C   0  0  0  0  0  0  0  0  0  0  0  0
    2.7292   -1.1000    0.0000 Br  0  0  0  0  0  0  0  0  0  0  0  0
    0.5292   -0.3375    0.0000 C   0  0  0  0  0  0  0  0  0  0  0  0
    0.5292   -1.8542    0.0000 C   0  0  0  0  0  0  0  0  0  0  0  0
    1.4042   -1.8542    0.0000 C   0  0  0  0  0  0  0  0  0  0  0  0
    1.4042   -0.3375    0.0000 C   0  0  0  0  0  0  0  0  0  0  0  0
  2  1  1  0  0  0  0
  3  2  1  0  0  0  0
  4  7  1  0  0  0  0
  5  1  1  0  0  0  0
  6  2  2  0  0  0  0
  7 15  2  0  0  0  0
  7  6  1  0  0  0  0
  8  5  1  0  0  0  0
  9  1  2  0  0  0  0
 10  3  1  0  0  0  0
 11  4  1  0  0  0  0
 12  3  2  0  0  0  0
 13  4  2  0  0  0  0
 14  5  2  0  0  0  0
 15  9  1  0  0  0  0
 16  8  1  0  0  0  0
 17 21  1  0  0  0  0
 17 22  2  0  0  0  0
 18 17  1  0  0  0  0
 19 16  2  0  0  0  0
 20 16  1  0  0  0  0
 21 20  2  0  0  0  0
 22 19  1  0  0  0  0
M  CHG  4   3   1   4   1  10  -1  11  -1
M  END
>  <ID>
5554641

>  <Supplier>
ChemBridge

>  <clogP>
2.680000000000000e+000

>  <RB>
2

>  <tPSA>
1.153800000000000e+002

>  <Hacc>
5

>  <Hdon>
1

>  <LogSw>
-4.548000000000000e+000

>  <Group>
1

>  <Core>
511

$$$$
5554646
 OpenBabel03312015312D

 24 25  0  0  0  0  0  0  0  0999 V2000
    4.8042   -1.9375    0.0000 C   0  0  0  0  0  0  0  0  0  0  0  0
    6.1042   -1.9500    0.0000 C   0  0  0  0  0  0  0  0  0  0  0  0
    5.4542   -2.3167    0.0000 C   0  0  0  0  0  0  0  0  0  0  0  0
    2.8542   -0.8167    0.0000 C   0  0  0  0  0  0  0  0  0  0  0  0
    6.1042   -1.2000    0.0000 C   0  0  0  0  0  0  0  0  0  0  0  0
    3.5042   -1.9375    0.0000 N   0  0  0  0  0  0  0  0  0  0  0  0
    1.5542   -0.8167    0.0000 N   0  0  0  0  0  0  0  0  0  0  0  0
    4.8042   -1.1875    0.0000 C   0  0  0  0  0  0  0  0  0  0  0  0
    5.4542   -0.8167    0.0000 C   0  0  0  0  0  0  0  0  0  0  0  0
    3.5042   -1.1875    0.0000 N   0  0  0  0  0  0  0  0  0  0  0  0
    4.1542   -2.3167    0.0000 C   0  0  0  0  0  0  0  0  0  0  0  0
    0.9042   -1.1875    0.0000 C   0  0  0  0  0  0  0  0  0  0  0  0
    2.8542   -0.0667    0.0000 O   0  0  0  0  0  0  0  0  0  0  0  0
    2.2042   -1.1875    0.0000 C   0  0  0  0  0  0  0  0  0  0  0  0
    0.2542   -0.8042    0.0000 C   0  0  0  0  0  0  0  0  0  0  0  0
    6.7542   -2.3167    0.0000 Br  0  0  0  0  0  0  0  0  0  0  0  0
    5.4542   -0.0667    0.0000 Br  0  0  0  0  0  0  0  0  0  0  0  0
    5.4542   -3.0667    0.0000 O   0  0  0  0  0  0  0  0  0  0  0  0
    0.9042   -1.9500    0.0000 C   0  0  0  0  0  0  0  0  0  0  0  0
    0.2542   -0.0542    0.0000 C   0  0  0  0  0  0  0  0  0  0  0  0
   -0.3833   -1.1875    0.0000 C   0  0  0  0  0  0  0  0  0  0  0  0
    4.8042   -3.4375    0.0000 C   0  0  0  0  0  0  0  0  0  0  0  0
    0.2542   -2.3167    0.0000 C   0  0  0  0  0  0  0  0  0  0  0  0
   -0.3833   -1.9500    0.0000 C   0  0  0  0  0  0  0  0  0  0  0  0
  2  3  2  0  0  0  0
  3  1  1  0  0  0  0
  4 10  1  0  0  0  0
  5  9  2  0  0  0  0
  5  2  1  0  0  0  0
  6 11  2  0  0  0  0
  7 14  1  0  0  0  0
  8  1  2  0  0  0  0
  9  8  1  0  0  0  0
 10  6  1  0  0  0  0
 11  1  1  0  0  0  0
 12  7  1  0  0  0  0
 13  4  2  0  0  0  0
 14  4  1  0  0  0  0
 15 12  1  0  0  0  0
 16  2  1  0  0  0  0
 17  9  1  0  0  0  0
 18  3  1  0  0  0  0
 19 12  2  0  0  0  0
 20 15  1  0  0  0  0
 21 15  2  0  0  0  0
 22 18  1  0  0  0  0
 23 19  1  0  0  0  0
 24 23  2  0  0  0  0
 24 21  1  0  0  0  0
M  END
>  <ID>
5554646

>  <Supplier>
ChemBridge

>  <clogP>
4.490000000000000e+000

>  <RB>
5

>  <tPSA>
6.272000000000000e+001

>  <Hacc>
3

>  <Hdon>
2

>  <LogSw>
-6.351999999999999e+000

>  <Group>
1

>  <Core>
216

$$$$
5554644
 OpenBabel03312015312D

 22 24  0  0  0  0  0  0  0  0999 V2000
   -0.1625   -1.4792    0.0000 C   0  0  0  0  0  0  0  0  0  0  0  0
    0.6167   -0.6167    0.0000 N   0  0  0  0  0  0  0  0  0  0  0  0
   -1.3000   -1.4542    0.0000 N   0  0  0  0  0  0  0  0  0  0  0  0
    1.6375   -1.1000    0.0000 C   0  0  0  0  0  0  0  0  0  0  0  0
   -1.8625   -0.4792    0.0000 C   0  0  0  0  0  0  0  0  0  0  0  0
    0.4167   -2.4542    0.0000 S   0  0  0  0  0  0  0  0  0  0  0  0
    1.5167   -2.2000    0.0000 C   0  0  0  0  0  0  0  0  0  0  0  0
   -3.0000   -0.4792    0.0000 C   0  0  0  0  0  0  0  0  0  0  0  0
    2.6000   -0.4792    0.0000 C   0  0  0  0  0  0  0  0  0  0  0  0
   -1.3000    0.5208    0.0000 O   0  0  0  0  0  0  0  0  0  0  0  0
   -3.5625    0.5208    0.0000 C   0  0  0  0  0  0  0  0  0  0  0  0
    2.5375    0.6833    0.0000 C   0  0  0  0  0  0  0  0  0  0  0  0
    3.6167   -1.0000    0.0000 C   0  0  0  0  0  0  0  0  0  0  0  0
   -4.7083    0.5458    0.0000 C   0  0  0  0  0  0  0  0  0  0  0  0
    4.5167    0.7833    0.0000 C   0  0  0  0  0  0  0  0  0  0  0  0
    3.5000    1.3000    0.0000 C   0  0  0  0  0  0  0  0  0  0  0  0
    4.5792   -0.3792    0.0000 C   0  0  0  0  0  0  0  0  0  0  0  0
   -5.2833    1.5458    0.0000 Br  0  0  0  0  0  0  0  0  0  0  0  0
    5.5000    1.4000    0.0000 F   0  0  0  0  0  0  0  0  0  0  0  0
   -3.5833   -1.4542    0.0000 C   0  0  0  0  0  0  0  0  0  0  0  0
   -4.7208   -1.4375    0.0000 C   0  0  0  0  0  0  0  0  0  0  0  0
   -5.2833   -0.4542    0.0000 C   0  0  0  0  0  0  0  0  0  0  0  0
  2  1  2  0  0  0  0
  3  1  1  0  0  0  0
  4  2  1  0  0  0  0
  5  3  1  0  0  0  0
  6  1  1  0  0  0  0
  7  6  1  0  0  0  0
  7  4  2  0  0  0  0
  8  5  1  0  0  0  0
  9  4  1  0  0  0  0
 10  5  2  0  0  0  0
 11  8  2  0  0  0  0
 12  9  2  0  0  0  0
 13  9  1  0  0  0  0
 14 11  1  0  0  0  0
 15 17  1  0  0  0  0
 15 16  2  0  0  0  0
 16 12  1  0  0  0  0
 17 13  2  0  0  0  0
 18 14  1  0  0  0  0
 19 15  1  0  0  0  0
 20  8  1  0  0  0  0
 21 20  2  0  0  0  0
 22 21  1  0  0  0  0
 22 14  2  0  0  0  0
M  END
>  <ID>
5554644

>  <Supplier>
ChemBridge

>  <clogP>
5.000000000000000e+000

>  <RB>
3

>  <tPSA>
4.199000000000000e+001

>  <Hacc>
2

>  <Hdon>
1

>  <LogSw>
-6.220000000000000e+000

>  <Group>
2

>  <Core>
227

$$$$
9158237
 OpenBabel03312015312D

 26 28  0  0  0  0  0  0  0  0999 V2000
    4.9917    2.2375    0.0000 C   0  0  0  0  0  0  0  0  0  0  0  0
    7.2417    0.9375    0.0000 N   0  0  0  0  0  0  0  0  0  0  0  0
    6.8667    1.5875    0.0000 C   0  0  0  0  0  0  0  0  0  0  0  0
    4.6167    2.8958    0.0000 N   0  0  0  0  0  0  0  0  0  0  0  0
    6.1167    1.5875    0.0000 S   0  0  0  0  0  0  0  0  0  0  0  0
    5.7417    2.2375    0.0000 C   0  0  3  0  0  0  0  0  0  0  0  0
    7.9917    0.9375    0.0000 C   0  0  0  0  0  0  0  0  0  0  0  0
    1.2417    2.2375    0.0000 C   0  0  0  0  0  0  0  0  0  0  0  0
    1.6167    2.8958    0.0000 N   0  0  0  0  0  0  0  0  0  0  0  0
    4.6167    1.5875    0.0000 O   0  0  0  0  0  0  0  0  0  0  0  0
    0.4917    2.2375    0.0000 O   0  0  0  0  0  0  0  0  0  0  0  0
    8.3667    1.5875    0.0000 C   0  0  0  0  0  0  0  0  0  0  0  0
    3.8667    2.8958    0.0000 C   0  0  0  0  0  0  0  0  0  0  0  0
    7.9917    2.2375    0.0000 C   0  0  0  0  0  0  0  0  0  0  0  0
    7.2417    2.2375    0.0000 C   0  0  0  0  0  0  0  0  0  0  0  0
    2.3667    2.8958    0.0000 C   0  0  0  0  0  0  0  0  0  0  0  0
    3.4917    2.2375    0.0000 C   0  0  0  0  0  0  0  0  0  0  0  0
    3.4917    3.5458    0.0000 C   0  0  0  0  0  0  0  0  0  0  0  0
    2.7417    3.5458    0.0000 C   0  0  0  0  0  0  0  0  0  0  0  0
    2.7417    2.2375    0.0000 C   0  0  0  0  0  0  0  0  0  0  0  0
    1.6167    1.5875    0.0000 C   0  0  0  0  0  0  0  0  0  0  0  0
    8.3667    0.2958    0.0000 C   0  0  0  0  0  0  0  0  0  0  0  0
    6.1167    2.8958    0.0000 C   0  0  0  0  0  0  0  0  0  0  0  0
    9.1167    1.5875    0.0000 C   0  0  0  0  0  0  0  0  0  0  0  0
    9.1167    0.2958    0.0000 C   0  0  0  0  0  0  0  0  0  0  0  0
    9.4917    0.9375    0.0000 C   0  0  0  0  0  0  0  0  0  0  0  0
  2  3  2  0  0  0  0
  3  5  1  0  0  0  0
  4  1  1  0  0  0  0
  5  6  1  0  0  0  0
  6  1  1  0  0  0  0
  7  2  1  0  0  0  0
  7 12  2  0  0  0  0
  8  9  1  0  0  0  0
  9 16  1  0  0  0  0
 10  1  2  0  0  0  0
 11  8  2  0  0  0  0
 12 14  1  0  0  0  0
 13  4  1  0  0  0  0
 14 15  2  0  0  0  0
 15  3  1  0  0  0  0
 16 19  1  0  0  0  0
 16 20  2  0  0  0  0
 17 13  2  0  0  0  0
 18 13  1  0  0  0  0
 19 18  2  0  0  0  0
 20 17  1  0  0  0  0
 21  8  1  0  0  0  0
 22  7  1  0  0  0  0
 23  6  1  0  0  0  0
 24 12  1  0  0  0  0
 25 22  2  0  0  0  0
 26 24  2  0  0  0  0
 26 25  1  0  0  0  0
M  END
>  <ID>
9158237

>  <Supplier>
ChemBridge

>  <clogP>
3.034000000000000e+000

>  <RB>
5

>  <tPSA>
7.109000000000000e+001

>  <Hacc>
3

>  <Hdon>
2

>  <LogSw>
-4.456000000000000e+000

>  <Group>
2

$$$$
9124790
 OpenBabel03312015312D

 28 31  0  0  0  0  0  0  0  0999 V2000
    3.3292    4.5417    0.0000 C   0  0  0  0  0  0  0  0  0  0  0  0
    3.9792    4.9167    0.0000 C   0  0  0  0  0  0  0  0  0  0  0  0
    2.6500    4.8417    0.0000 O   0  0  0  0  0  0  0  0  0  0  0  0
    5.9292    4.5417    0.0000 C   0  0  0  0  0  0  0  0  0  0  0  0
    5.2792    4.9167    0.0000 C   0  0  0  0  0  0  0  0  0  0  0  0
    3.2542    3.8000    0.0000 C   0  0  0  0  0  0  0  0  0  0  0  0
    5.9292    3.7958    0.0000 N   0  0  0  0  0  0  0  0  0  0  0  0
    4.6292    4.5417    0.0000 N   0  0  0  0  0  0  0  0  0  0  0  0
    5.9292    2.2958    0.0000 N   0  0  0  0  0  0  0  0  0  0  0  0
    5.9292    1.5458    0.0000 C   0  0  0  0  0  0  0  0  0  0  0  0
    2.1417    4.2917    0.0000 C   0  0  0  0  0  0  0  0  0  0  0  0
    2.5167    3.6458    0.0000 C   0  0  0  0  0  0  0  0  0  0  0  0
    6.5792    3.4208    0.0000 C   0  0  0  0  0  0  0  0  0  0  0  0
    5.2792    3.4208    0.0000 C   0  0  0  0  0  0  0  0  0  0  0  0
    6.5792    4.9167    0.0000 C   0  0  0  0  0  0  0  0  0  0  0  0
    5.2792    2.6708    0.0000 C   0  0  0  0  0  0  0  0  0  0  0  0
    6.5792    2.6708    0.0000 C   0  0  0  0  0  0  0  0  0  0  0  0
    3.9792    5.6667    0.0000 O   0  0  0  0  0  0  0  0  0  0  0  0
    6.5792    1.1708    0.0000 O   0  0  0  0  0  0  0  0  0  0  0  0
    7.2292    4.5417    0.0000 Cl  0  0  0  0  0  0  0  0  0  0  0  0
    5.2792    5.6667    0.0000 C   0  0  0  0  0  0  0  0  0  0  0  0
    5.2792    1.1708    0.0000 C   0  0  0  0  0  0  0  0  0  0  0  0
    5.9292    6.0417    0.0000 C   0  0  0  0  0  0  0  0  0  0  0  0
    1.3917    4.2917    0.0000 C   0  0  0  0  0  0  0  0  0  0  0  0
    2.1417    2.9958    0.0000 C   0  0  0  0  0  0  0  0  0  0  0  0
    6.5792    5.6667    0.0000 C   0  0  0  0  0  0  0  0  0  0  0  0
    1.3917    2.9958    0.0000 C   0  0  0  0  0  0  0  0  0  0  0  0
    1.0167    3.6458    0.0000 C   0  0  0  0  0  0  0  0  0  0  0  0
  2  1  1  0  0  0  0
  3  1  1  0  0  0  0
  4  5  2  0  0  0  0
  5  8  1  0  0  0  0
  6  1  2  0  0  0  0
  7  4  1  0  0  0  0
  8  2  1  0  0  0  0
  9 16  1  0  0  0  0
  9 17  1  0  0  0  0
 10  9  1  0  0  0  0
 11  3  1  0  0  0  0
 11 12  2  0  0  0  0
 12  6  1  0  0  0  0
 13  7  1  0  0  0  0
 14  7  1  0  0  0  0
 15  4  1  0  0  0  0
 16 14  1  0  0  0  0
 17 13  1  0  0  0  0
 18  2  2  0  0  0  0
 19 10  2  0  0  0  0
 20 15  1  0  0  0  0
 21  5  1  0  0  0  0
 22 10  1  0  0  0  0
 23 21  2  0  0  0  0
 24 11  1  0  0  0  0
 25 12  1  0  0  0  0
 26 23  1  0  0  0  0
 26 15  2  0  0  0  0
 27 25  2  0  0  0  0
 28 24  2  0  0  0  0
 28 27  1  0  0  0  0
M  END
>  <ID>
9124790

>  <Supplier>
ChemBridge

>  <clogP>
2.217000000000000e+000

>  <RB>
3

>  <tPSA>
6.579000000000002e+001

>  <Hacc>
3

>  <Hdon>
1

>  <LogSw>
-4.816999999999998e+000

>  <Group>
2

>  <Core>
158

$$$$
6217320
 OpenBabel03312015312D

 31 33  0  0  0  0  0  0  0  0999 V2000
    5.7417   -4.4542    0.0000 S   0  0  0  0  0  0  0  0  0  0  0  0
    5.7417   -3.6292    0.0000 N   0  0  0  0  0  0  0  0  0  0  0  0
    6.4542   -3.2167    0.0000 C   0  0  0  0  0  0  0  0  0  0  0  0
    7.1667   -3.6292    0.0000 C   0  0  0  0  0  0  0  0  0  0  0  0
    5.0250   -3.2167    0.0000 C   0  0  0  0  0  0  0  0  0  0  0  0
    7.8792   -3.2167    0.0000 N   0  0  0  0  0  0  0  0  0  0  0  0
    6.3250   -5.0375    0.0000 O   0  0  0  0  0  0  0  0  0  0  0  0
    6.5667   -4.4542    0.0000 O   0  0  0  0  0  0  0  0  0  0  0  0
    5.0250   -4.8625    0.0000 C   0  0  0  0  0  0  0  0  0  0  0  0
    4.3125   -3.6417    0.0000 C   0  0  0  0  0  0  0  0  0  0  0  0
    8.5917   -3.6292    0.0000 C   0  0  0  0  0  0  0  0  0  0  0  0
    7.1667   -4.4542    0.0000 O   0  0  0  0  0  0  0  0  0  0  0  0
    9.3000   -3.2167    0.0000 C   0  0  0  0  0  0  0  0  0  0  0  0
    3.5917   -3.2167    0.0000 C   0  0  0  0  0  0  0  0  0  0  0  0
    9.2917   -2.3917    0.0000 O   0  0  0  0  0  0  0  0  0  0  0  0
    5.0292   -2.3875    0.0000 C   0  0  0  0  0  0  0  0  0  0  0  0
    2.8667   -3.6167    0.0000 O   0  0  0  0  0  0  0  0  0  0  0  0
    4.3167   -1.9750    0.0000 C   0  0  0  0  0  0  0  0  0  0  0  0
    8.5875   -4.4542    0.0000 C   0  0  0  0  0  0  0  0  0  0  0  0
    4.3167   -4.4375    0.0000 C   0  0  0  0  0  0  0  0  0  0  0  0
    5.0167   -5.6792    0.0000 C   0  0  0  0  0  0  0  0  0  0  0  0
   10.0167   -3.6292    0.0000 C   0  0  0  0  0  0  0  0  0  0  0  0
    3.5917   -2.3875    0.0000 C   0  0  0  0  0  0  0  0  0  0  0  0
   10.0042   -1.9667    0.0000 C   0  0  0  0  0  0  0  0  0  0  0  0
    2.1625   -3.2042    0.0000 C   0  0  0  0  0  0  0  0  0  0  0  0
    9.9917   -1.1417    0.0000 C   0  0  0  0  0  0  0  0  0  0  0  0
    9.2917   -4.8667    0.0000 C   0  0  0  0  0  0  0  0  0  0  0  0
    3.6000   -4.8417    0.0000 C   0  0  0  0  0  0  0  0  0  0  0  0
    4.3042   -6.0792    0.0000 C   0  0  0  0  0  0  0  0  0  0  0  0
   10.0125   -4.4625    0.0000 C   0  0  0  0  0  0  0  0  0  0  0  0
    3.5917   -5.6667    0.0000 C   0  0  0  0  0  0  0  0  0  0  0  0
  2  1  1  0  0  0  0
  3  2  1  0  0  0  0
  4  3  1  0  0  0  0
  5  2  1  0  0  0  0
  6  4  1  0  0  0  0
  7  1  2  0  0  0  0
  8  1  2  0  0  0  0
  9  1  1  0  0  0  0
 10  5  1  0  0  0  0
 11  6  1  0  0  0  0
 12  4  2  0  0  0  0
 13 11  1  0  0  0  0
 14 10  2  0  0  0  0
 14 23  1  0  0  0  0
 15 13  1  0  0  0  0
 16  5  2  0  0  0  0
 17 14  1  0  0  0  0
 18 16  1  0  0  0  0
 19 11  2  0  0  0  0
 20  9  2  0  0  0  0
 21  9  1  0  0  0  0
 22 13  2  0  0  0  0
 22 30  1  0  0  0  0
 23 18  2  0  0  0  0
 24 15  1  0  0  0  0
 25 17  1  0  0  0  0
 26 24  1  0  0  0  0
 27 19  1  0  0  0  0
 28 20  1  0  0  0  0
 29 21  2  0  0  0  0
 30 27  2  0  0  0  0
 31 29  1  0  0  0  0
 31 28  2  0  0  0  0
M  END
>  <ID>
6217320

>  <Supplier>
ChemBridge

>  <clogP>
3.780000000000000e+000

>  <RB>
5

>  <tPSA>
8.494000000000000e+001

>  <Hacc>
5

>  <Hdon>
1

>  <LogSw>
-5.639000000000000e+000

>  <Group>
2

>  <Core>
084

$$$$
6538859
 OpenBabel03312015312D

 26 28  0  0  0  0  0  0  0  0999 V2000
    0.0542    4.8417    0.0000 C   0  0  0  0  0  0  0  0  0  0  0  0
    1.3542    4.8417    0.0000 N   0  0  0  0  0  0  0  0  0  0  0  0
    0.7042    5.9667    0.0000 N   0  0  0  0  0  0  0  0  0  0  0  0
    0.7042    4.4667    0.0000 C   0  0  0  0  0  0  0  0  0  0  0  0
    0.0542    5.5917    0.0000 C   0  0  0  0  0  0  0  0  0  0  0  0
    1.3542    5.5917    0.0000 C   0  0  0  0  0  0  0  0  0  0  0  0
   -0.5958    4.4667    0.0000 C   0  0  0  0  0  0  0  0  0  0  0  0
    0.0542    2.6083    0.0000 C   0  0  0  0  0  0  0  0  0  0  0  0
    0.7042    0.8833    0.0000 C   0  0  0  0  0  0  0  0  0  0  0  0
    0.7042    3.7333    0.0000 O   0  0  0  0  0  0  0  0  0  0  0  0
   -0.5958    5.9667    0.0000 O   0  0  0  0  0  0  0  0  0  0  0  0
   -0.5958    2.2250    0.0000 C   0  0  0  0  0  0  0  0  0  0  0  0
   -0.5958    3.7333    0.0000 C   0  0  0  0  0  0  0  0  0  0  0  0
    2.0042    5.9667    0.0000 O   0  0  0  0  0  0  0  0  0  0  0  0
   -0.5958    0.8750    0.0000 O   0  0  0  0  0  0  0  0  0  0  0  0
    0.0542    3.3583    0.0000 C   0  0  0  0  0  0  0  0  0  0  0  0
    0.0542    0.5000    0.0000 C   0  0  0  0  0  0  0  0  0  0  0  0
    1.3500    0.5083    0.0000 C   0  0  0  0  0  0  0  0  0  0  0  0
   -1.2458    2.6000    0.0000 C   0  0  0  0  0  0  0  0  0  0  0  0
    0.7042    2.2250    0.0000 Br  0  0  0  0  0  0  0  0  0  0  0  0
   -1.2458    3.3583    0.0000 C   0  0  0  0  0  0  0  0  0  0  0  0
    1.3500   -0.2417    0.0000 F   0  0  0  0  0  0  0  0  0  0  0  0
    0.7042    1.6333    0.0000 C   0  0  0  0  0  0  0  0  0  0  0  0
    2.0000    0.8833    0.0000 C   0  0  0  0  0  0  0  0  0  0  0  0
    1.3500    2.0083    0.0000 C   0  0  0  0  0  0  0  0  0  0  0  0
    2.0000    1.6333    0.0000 C   0  0  0  0  0  0  0  0  0  0  0  0
  2  4  1  0  0  0  0
  2  6  1  0  0  0  0
  3  5  1  0  0  0  0
  4  1  1  0  0  0  0
  5  1  1  0  0  0  0
  6  3  1  0  0  0  0
  7  1  2  0  0  0  0
  8 16  1  0  0  0  0
  9 17  1  0  0  0  0
 10  4  2  0  0  0  0
 11  5  2  0  0  0  0
 12 19  1  0  0  0  0
 12  8  2  0  0  0  0
 13  7  1  0  0  0  0
 14  6  2  0  0  0  0
 15 12  1  0  0  0  0
 16 13  2  0  0  0  0
 17 15  1  0  0  0  0
 18  9  1  0  0  0  0
 19 21  2  0  0  0  0
 20  8  1  0  0  0  0
 21 13  1  0  0  0  0
 22 18  1  0  0  0  0
 23  9  2  0  0  0  0
 24 18  2  0  0  0  0
 24 26  1  0  0  0  0
 25 23  1  0  0  0  0
 26 25  2  0  0  0  0
M  END
>  <ID>
6538859

>  <Supplier>
ChemBridge

>  <clogP>
4.700000000000000e+000

>  <RB>
4

>  <tPSA>
8.450000000000003e+001

>  <Hacc>
4

>  <Hdon>
2

>  <LogSw>
-6.270000000000001e+000

>  <Group>
2

>  <Core>
006

$$$$
5248608
 OpenBabel03312015312D

 29 32  0  0  0  0  0  0  0  0999 V2000
    4.9292   -6.5042    0.0000 C   0  0  0  0  0  0  0  0  0  0  0  0
    4.9292   -7.6875    0.0000 C   0  0  0  0  0  0  0  0  0  0  0  0
    3.8875   -5.8875    0.0000 C   0  0  0  0  0  0  0  0  0  0  0  0
    3.8875   -8.3375    0.0000 C   0  0  0  0  0  0  0  0  0  0  0  0
    2.8542   -6.5042    0.0000 C   0  0  0  0  0  0  0  0  0  0  0  0
    2.8542   -7.6875    0.0000 C   0  0  0  0  0  0  0  0  0  0  0  0
    5.9792   -5.9167    0.0000 C   0  0  3  0  0  0  0  0  0  0  0  0
    3.8875   -4.6500    0.0000 O   0  0  0  0  0  0  0  0  0  0  0  0
    5.9792   -4.7375    0.0000 C   0  0  0  0  0  0  0  0  0  0  0  0
    3.8875   -9.3292    0.0000 O   0  0  0  0  0  0  0  0  0  0  0  0
    6.0042   -2.3167    0.0000 C   0  0  0  0  0  0  0  0  0  0  0  0
    6.0042   -1.1042    0.0000 N   0  0  0  0  0  0  0  0  0  0  0  0
    5.9542   -8.3375    0.0000 O   0  0  0  0  0  0  0  0  0  0  0  0
    7.0167   -6.5375    0.0000 C   0  0  0  0  0  0  0  0  0  0  0  0
    5.0000   -4.0875    0.0000 C   0  0  0  0  0  0  0  0  0  0  0  0
    7.0542   -4.1167    0.0000 C   0  0  0  0  0  0  0  0  0  0  0  0
    5.0000   -2.9042    0.0000 C   0  0  0  0  0  0  0  0  0  0  0  0
    7.0542   -2.9042    0.0000 C   0  0  0  0  0  0  0  0  0  0  0  0
    1.8000   -5.8875    0.0000 C   0  0  0  0  0  0  0  0  0  0  0  0
    1.8000   -8.3375    0.0000 C   0  0  0  0  0  0  0  0  0  0  0  0
    4.9500   -0.5000    0.0000 C   0  0  0  0  0  0  0  0  0  0  0  0
    7.0667   -0.5292    0.0000 C   0  0  0  0  0  0  0  0  0  0  0  0
    7.0167   -7.7500    0.0000 C   0  0  0  0  0  0  0  0  0  0  0  0
    8.0667   -5.9500    0.0000 C   0  0  0  0  0  0  0  0  0  0  0  0
    0.7667   -6.5042    0.0000 C   0  0  0  0  0  0  0  0  0  0  0  0
    0.7667   -7.6875    0.0000 C   0  0  0  0  0  0  0  0  0  0  0  0
    8.0667   -8.3667    0.0000 C   0  0  0  0  0  0  0  0  0  0  0  0
    9.1292   -6.5375    0.0000 C   0  0  0  0  0  0  0  0  0  0  0  0
    9.1292   -7.7500    0.0000 C   0  0  0  0  0  0  0  0  0  0  0  0
  2  1  2  0  0  0  0
  3  1  1  0  0  0  0
  4  2  1  0  0  0  0
  5  3  1  0  0  0  0
  6  5  2  0  0  0  0
  6  4  1  0  0  0  0
  7  1  1  0  0  0  0
  8  3  2  0  0  0  0
  9  7  1  0  0  0  0
 10  4  2  0  0  0  0
 11 18  2  0  0  0  0
 11 17  1  0  0  0  0
 12 11  1  0  0  0  0
 13  2  1  0  0  0  0
 14  7  1  0  0  0  0
 15  9  1  0  0  0  0
 16  9  2  0  0  0  0
 17 15  2  0  0  0  0
 18 16  1  0  0  0  0
 19  5  1  0  0  0  0
 20  6  1  0  0  0  0
 21 12  1  0  0  0  0
 22 12  1  0  0  0  0
 23 14  1  0  0  0  0
 24 14  2  0  0  0  0
 25 19  2  0  0  0  0
 26 25  1  0  0  0  0
 26 20  2  0  0  0  0
 27 23  2  0  0  0  0
 28 24  1  0  0  0  0
 29 28  2  0  0  0  0
 29 27  1  0  0  0  0
M  END
>  <ID>
5248608

>  <Supplier>
ChemBridge

>  <clogP>
5.370000000000000e+000

>  <RB>
3

>  <tPSA>
5.761000000000000e+001

>  <Hacc>
3

>  <Hdon>
1

>  <LogSw>
-6.581000000000000e+000

>  <Group>
2

$$$$
7961424
 OpenBabel03312015312D

 27 30  0  0  0  0  0  0  0  0999 V2000
    4.0500    3.6458    0.0000 C   0  0  0  0  0  0  0  0  0  0  0  0
    4.4250    2.9958    0.0000 C   0  0  0  0  0  0  0  0  0  0  0  0
    4.4250    4.2792    0.0000 C   0  0  0  0  0  0  0  0  0  0  0  0
    5.1750    2.9958    0.0000 O   0  0  0  0  0  0  0  0  0  0  0  0
    3.3000    3.6458    0.0000 O   0  0  0  0  0  0  0  0  0  0  0  0
    5.1750    4.2792    0.0000 C   0  0  0  0  0  0  0  0  0  0  0  0
    5.5500    3.6458    0.0000 C   0  0  0  0  0  0  0  0  0  0  0  0
    2.9250    4.2792    0.0000 C   0  0  0  0  0  0  0  0  0  0  0  0
    4.0500    2.3458    0.0000 C   0  0  0  0  0  0  0  0  0  0  0  0
    4.0500    4.9375    0.0000 O   0  0  0  0  0  0  0  0  0  0  0  0
    3.3000    4.9375    0.0000 O   0  0  0  0  0  0  0  0  0  0  0  0
    2.1750    4.2792    0.0000 C   0  0  0  0  0  0  0  0  0  0  0  0
    3.3000    2.3458    0.0000 C   0  0  0  0  0  0  0  0  0  0  0  0
    4.4250    1.6958    0.0000 C   0  0  0  0  0  0  0  0  0  0  0  0
    4.0500    1.0458    0.0000 C   0  0  0  0  0  0  0  0  0  0  0  0
    2.9250    1.6958    0.0000 C   0  0  0  0  0  0  0  0  0  0  0  0
    3.3000    1.0458    0.0000 C   0  0  0  0  0  0  0  0  0  0  0  0
    5.5500    4.9375    0.0000 C   0  0  0  0  0  0  0  0  0  0  0  0
    6.3000    3.6458    0.0000 C   0  0  0  0  0  0  0  0  0  0  0  0
    1.8000    4.9375    0.0000 C   0  0  0  0  0  0  0  0  0  0  0  0
    1.8000    3.6458    0.0000 C   0  0  0  0  0  0  0  0  0  0  0  0
    2.9250    0.3958    0.0000 C   0  0  0  0  0  0  0  0  0  0  0  0
    6.3000    4.9375    0.0000 C   0  0  0  0  0  0  0  0  0  0  0  0
    6.6750    4.2792    0.0000 C   0  0  0  0  0  0  0  0  0  0  0  0
    1.0500    4.9375    0.0000 C   0  0  0  0  0  0  0  0  0  0  0  0
    1.0500    3.6458    0.0000 C   0  0  0  0  0  0  0  0  0  0  0  0
    0.6750    4.2792    0.0000 C   0  0  0  0  0  0  0  0  0  0  0  0
  2  1  2  0  0  0  0
  3  1  1  0  0  0  0
  4  2  1  0  0  0  0
  4  7  1  0  0  0  0
  5  1  1  0  0  0  0
  6  3  1  0  0  0  0
  7  6  2  0  0  0  0
  8  5  1  0  0  0  0
  9  2  1  0  0  0  0
 10  3  2  0  0  0  0
 11  8  2  0  0  0  0
 12  8  1  0  0  0  0
 13  9  2  0  0  0  0
 14  9  1  0  0  0  0
 15 14  2  0  0  0  0
 16 13  1  0  0  0  0
 16 17  2  0  0  0  0
 17 15  1  0  0  0  0
 18  6  1  0  0  0  0
 19  7  1  0  0  0  0
 20 12  1  0  0  0  0
 21 12  2  0  0  0  0
 22 17  1  0  0  0  0
 23 18  2  0  0  0  0
 24 23  1  0  0  0  0
 24 19  2  0  0  0  0
 25 20  2  0  0  0  0
 26 21  1  0  0  0  0
 27 26  2  0  0  0  0
 27 25  1  0  0  0  0
M  END
>  <ID>
7961424

>  <Supplier>
ChemBridge

>  <clogP>
5.146999999999999e+000

>  <RB>
4

>  <tPSA>
5.651000000000000e+001

>  <Hacc>
4

>  <Hdon>
0

>  <LogSw>
-6.193999999999998e+000

>  <Group>
1

>  <Core>
083

$$$$
6586261
 OpenBabel03312015312D

 22 24  0  0  0  0  0  0  0  0999 V2000
    2.2292   -1.2375    0.0000 C   0  0  0  0  0  0  0  0  0  0  0  0
    1.4000   -1.7375    0.0000 C   0  0  0  0  0  0  0  0  0  0  0  0
    2.2042   -0.2542    0.0000 C   0  0  0  0  0  0  0  0  0  0  0  0
    0.5500   -1.2667    0.0000 C   0  0  0  0  0  0  0  0  0  0  0  0
    1.4167   -2.7167    0.0000 N   0  3  0  0  0  0  0  0  0  0  0  0
    1.3542    0.2125    0.0000 C   0  0  0  0  0  0  0  0  0  0  0  0
    0.5292   -0.2667    0.0000 C   0  0  0  0  0  0  0  0  0  0  0  0
    3.1792   -1.5167    0.0000 N   0  0  0  0  0  0  0  0  0  0  0  0
    3.1375    0.0500    0.0000 N   0  0  0  0  0  0  0  0  0  0  0  0
   -0.3125   -1.8042    0.0000 N   0  0  0  0  0  0  0  0  0  0  0  0
    3.7167   -0.7042    0.0000 O   0  0  0  0  0  0  0  0  0  0  0  0
   -1.1958   -1.3792    0.0000 C   0  0  0  0  0  0  0  0  0  0  0  0
   -1.2833   -0.3875    0.0000 C   0  0  0  0  0  0  0  0  0  0  0  0
    0.5875   -3.2042    0.0000 O   0  5  0  0  0  0  0  0  0  0  0  0
    2.2667   -3.2000    0.0000 O   0  0  0  0  0  0  0  0  0  0  0  0
   -2.1708    0.0125    0.0000 C   0  0  0  0  0  0  0  0  0  0  0  0
    1.3375    1.1833    0.0000 Cl  0  0  0  0  0  0  0  0  0  0  0  0
   -1.9708   -1.9375    0.0000 C   0  0  0  0  0  0  0  0  0  0  0  0
   -2.8833   -1.5167    0.0000 C   0  0  0  0  0  0  0  0  0  0  0  0
   -0.5000    0.1833    0.0000 C   0  0  0  0  0  0  0  0  0  0  0  0
   -2.9708   -0.5667    0.0000 C   0  0  0  0  0  0  0  0  0  0  0  0
   -2.2500    0.9833    0.0000 C   0  0  0  0  0  0  0  0  0  0  0  0
  2  1  1  0  0  0  0
  3  1  1  0  0  0  0
  4  2  2  0  0  0  0
  5  2  1  0  0  0  0
  6  3  1  0  0  0  0
  7  6  2  0  0  0  0
  7  4  1  0  0  0  0
  8  1  2  0  0  0  0
  9  3  2  0  0  0  0
  9 11  1  0  0  0  0
 10  4  1  0  0  0  0
 11  8  1  0  0  0  0
 12 10  1  0  0  0  0
 13 12  2  0  0  0  0
 14  5  1  0  0  0  0
 15  5  2  0  0  0  0
 16 13  1  0  0  0  0
 17  6  1  0  0  0  0
 18 12  1  0  0  0  0
 19 18  2  0  0  0  0
 20 13  1  0  0  0  0
 21 19  1  0  0  0  0
 21 16  2  0  0  0  0
 22 16  1  0  0  0  0
M  CHG  2   5   1  14  -1
M  END
>  <ID>
6586261

>  <Supplier>
ChemBridge

>  <clogP>
5.850000000000000e+000

>  <RB>
2

>  <tPSA>
9.409000000000000e+001

>  <Hacc>
5

>  <Hdon>
1

>  <LogSw>
-6.520000000000000e+000

>  <Group>
1

>  <Core>
371

$$$$
6586265
 OpenBabel03312015312D

 34 37  0  0  0  0  0  0  0  0999 V2000
    5.2167   -3.2667    0.0000 N   0  0  0  0  0  0  0  0  0  0  0  0
    4.9875   -3.9792    0.0000 C   0  0  0  0  0  0  0  0  0  0  0  0
    5.9667   -3.2667    0.0000 C   0  0  0  0  0  0  0  0  0  0  0  0
    6.2000   -3.9792    0.0000 C   0  0  0  0  0  0  0  0  0  0  0  0
    5.5917   -4.4167    0.0000 S   0  0  0  0  0  0  0  0  0  0  0  0
    6.9125   -4.2042    0.0000 C   0  0  0  0  0  0  0  0  0  0  0  0
    4.2750   -4.2042    0.0000 S   0  0  0  0  0  0  0  0  0  0  0  0
    4.7792   -2.6542    0.0000 C   0  0  0  0  0  0  0  0  0  0  0  0
   10.0667   -6.6167    0.0000 C   0  0  0  0  0  0  0  0  0  0  0  0
    6.6667   -6.1792    0.0000 C   0  0  0  0  0  0  0  0  0  0  0  0
    6.4042   -2.6542    0.0000 O   0  0  0  0  0  0  0  0  0  0  0  0
    7.0667   -4.9417    0.0000 C   0  0  0  0  0  0  0  0  0  0  0  0
    6.5125   -5.4417    0.0000 C   0  0  0  0  0  0  0  0  0  0  0  0
    7.3750   -6.4125    0.0000 C   0  0  0  0  0  0  0  0  0  0  0  0
    9.9167   -5.8792    0.0000 C   0  0  0  0  0  0  0  0  0  0  0  0
   10.7792   -6.8542    0.0000 C   0  0  0  0  0  0  0  0  0  0  0  0
    7.9417   -5.9125    0.0000 C   0  0  0  0  0  0  0  0  0  0  0  0
    7.7792   -5.1750    0.0000 C   0  0  0  0  0  0  0  0  0  0  0  0
    9.5125   -7.1167    0.0000 O   0  0  0  0  0  0  0  0  0  0  0  0
    6.1042   -6.6750    0.0000 O   0  0  0  0  0  0  0  0  0  0  0  0
    7.5250   -7.1417    0.0000 O   0  0  0  0  0  0  0  0  0  0  0  0
   11.1917   -5.6250    0.0000 C   0  0  0  0  0  0  0  0  0  0  0  0
   11.3417   -6.3625    0.0000 C   0  0  0  0  0  0  0  0  0  0  0  0
   10.4875   -5.3792    0.0000 C   0  0  0  0  0  0  0  0  0  0  0  0
    4.0375   -2.7375    0.0000 C   0  0  0  0  0  0  0  0  0  0  0  0
    5.0875   -1.9750    0.0000 C   0  0  0  0  0  0  0  0  0  0  0  0
   10.9375   -7.5917    0.0000 C   0  0  0  0  0  0  0  0  0  0  0  0
    9.2042   -5.6417    0.0000 C   0  0  0  0  0  0  0  0  0  0  0  0
    8.8000   -6.8792    0.0000 C   0  0  0  0  0  0  0  0  0  0  0  0
    8.2375   -7.3792    0.0000 C   0  0  0  0  0  0  0  0  0  0  0  0
    6.2542   -7.4042    0.0000 C   0  0  0  0  0  0  0  0  0  0  0  0
    3.5917   -2.1375    0.0000 C   0  0  0  0  0  0  0  0  0  0  0  0
    4.6417   -1.3667    0.0000 C   0  0  0  0  0  0  0  0  0  0  0  0
    3.9000   -1.4417    0.0000 C   0  0  0  0  0  0  0  0  0  0  0  0
  2  1  1  0  0  0  0
  3  1  1  0  0  0  0
  4  3  1  0  0  0  0
  4  5  1  0  0  0  0
  5  2  1  0  0  0  0
  6  4  2  0  0  0  0
  7  2  2  0  0  0  0
  8  1  1  0  0  0  0
  9 19  1  0  0  0  0
 10 13  2  0  0  0  0
 11  3  2  0  0  0  0
 12  6  1  0  0  0  0
 13 12  1  0  0  0  0
 14 17  2  0  0  0  0
 14 10  1  0  0  0  0
 15  9  1  0  0  0  0
 16  9  2  0  0  0  0
 17 18  1  0  0  0  0
 18 12  2  0  0  0  0
 19 29  1  0  0  0  0
 20 10  1  0  0  0  0
 21 14  1  0  0  0  0
 22 23  2  0  0  0  0
 23 16  1  0  0  0  0
 24 15  2  0  0  0  0
 24 22  1  0  0  0  0
 25  8  1  0  0  0  0
 26  8  2  0  0  0  0
 27 16  1  0  0  0  0
 28 15  1  0  0  0  0
 29 30  1  0  0  0  0
 30 21  1  0  0  0  0
 31 20  1  0  0  0  0
 32 25  2  0  0  0  0
 33 26  1  0  0  0  0
 34 33  2  0  0  0  0
 34 32  1  0  0  0  0
M  END
>  <ID>
6586265

>  <Supplier>
ChemBridge

>  <clogP>
6.440000000000000e+000

>  <RB>
7

>  <tPSA>
4.800000000000000e+001

>  <Hacc>
4

>  <Hdon>
0

>  <LogSw>
-8.283000000000000e+000

>  <Group>
1

>  <Core>
001

$$$$
7802389
 OpenBabel03312015312D

 33 36  0  0  0  0  0  0  0  0999 V2000
    1.8167   -1.5375    0.0000 C   0  0  0  0  0  0  0  0  0  0  0  0
    3.2417   -1.5375    0.0000 C   0  0  0  0  0  0  0  0  0  0  0  0
    1.1042   -1.1250    0.0000 C   0  0  0  0  0  0  0  0  0  0  0  0
    1.8167   -2.3667    0.0000 C   0  0  0  0  0  0  0  0  0  0  0  0
    2.5292   -1.1167    0.0000 C   0  0  3  0  0  0  0  0  0  0  0  0
    3.2417   -2.3667    0.0000 C   0  0  0  0  0  0  0  0  0  0  0  0
    3.9667   -1.1250    0.0000 C   0  0  0  0  0  0  0  0  0  0  0  0
    0.3792   -1.5375    0.0000 C   0  0  3  0  0  0  0  0  0  0  0  0
    2.5292   -2.7792    0.0000 N   0  0  0  0  0  0  0  0  0  0  0  0
    0.3792   -2.3667    0.0000 C   0  0  3  0  0  0  0  0  0  0  0  0
    2.5292    0.3750    0.0000 C   0  0  0  0  0  0  0  0  0  0  0  0
   -0.3333   -1.1167    0.0000 C   0  0  0  0  0  0  0  0  0  0  0  0
    1.1042   -2.7792    0.0000 C   0  0  0  0  0  0  0  0  0  0  0  0
    4.6792   -1.5417    0.0000 O   0  0  0  0  0  0  0  0  0  0  0  0
    1.1042   -0.2917    0.0000 O   0  0  0  0  0  0  0  0  0  0  0  0
    3.9667   -0.2917    0.0000 O   0  0  0  0  0  0  0  0  0  0  0  0
    3.2167    0.7708    0.0000 C   0  0  0  0  0  0  0  0  0  0  0  0
   -0.3333   -0.2917    0.0000 O   0  0  0  0  0  0  0  0  0  0  0  0
   -1.0583   -1.5292    0.0000 O   0  0  0  0  0  0  0  0  0  0  0  0
    3.9667   -2.7792    0.0000 C   0  0  0  0  0  0  0  0  0  0  0  0
    3.9000    0.3708    0.0000 F   0  0  0  0  0  0  0  0  0  0  0  0
    5.4042   -1.1292    0.0000 C   0  0  0  0  0  0  0  0  0  0  0  0
   -0.3333   -2.7792    0.0000 C   0  0  0  0  0  0  0  0  0  0  0  0
    1.8542    0.7625    0.0000 C   0  0  0  0  0  0  0  0  0  0  0  0
    3.2167    1.5583    0.0000 C   0  0  0  0  0  0  0  0  0  0  0  0
   -1.7708   -1.1167    0.0000 C   0  0  0  0  0  0  0  0  0  0  0  0
    5.4042   -0.3042    0.0000 C   0  0  0  0  0  0  0  0  0  0  0  0
    6.1167   -1.5542    0.0000 C   0  0  0  0  0  0  0  0  0  0  0  0
    1.8500    1.5500    0.0000 C   0  0  0  0  0  0  0  0  0  0  0  0
    2.5375    1.9583    0.0000 C   0  0  0  0  0  0  0  0  0  0  0  0
    6.8375   -1.1417    0.0000 C   0  0  0  0  0  0  0  0  0  0  0  0
    6.1292    0.1083    0.0000 C   0  0  0  0  0  0  0  0  0  0  0  0
    6.8417   -0.3167    0.0000 C   0  0  0  0  0  0  0  0  0  0  0  0
  2  5  1  0  0  0  0
  3  1  1  0  0  0  0
  4  1  2  0  0  0  0
  5  1  1  0  0  0  0
  6  2  2  0  0  0  0
  7  2  1  0  0  0  0
  8  3  1  0  0  0  0
  8 10  1  0  0  0  0
  9  4  1  0  0  0  0
  9  6  1  0  0  0  0
 10 13  1  0  0  0  0
 11  5  1  0  0  0  0
 12  8  1  0  0  0  0
 13  4  1  0  0  0  0
 14  7  1  0  0  0  0
 15  3  2  0  0  0  0
 16  7  2  0  0  0  0
 17 11  2  0  0  0  0
 18 12  2  0  0  0  0
 19 12  1  0  0  0  0
 20  6  1  0  0  0  0
 21 17  1  0  0  0  0
 22 14  1  0  0  0  0
 23 10  1  0  0  0  0
 24 11  1  0  0  0  0
 25 17  1  0  0  0  0
 25 30  2  0  0  0  0
 26 19  1  0  0  0  0
 27 22  1  0  0  0  0
 28 22  1  0  0  0  0
 29 24  2  0  0  0  0
 30 29  1  0  0  0  0
 31 28  1  0  0  0  0
 32 27  1  0  0  0  0
 32 33  1  0  0  0  0
 33 31  1  0  0  0  0
M  END
>  <ID>
7802389

>  <Supplier>
ChemBridge

>  <clogP>
5.090000000000000e+000

>  <RB>
5

>  <tPSA>
8.170000000000000e+001

>  <Hacc>
5

>  <Hdon>
1

>  <LogSw>
-5.859000000000000e+000

>  <Group>
1

>  <Core>
085

$$$$
5307401
 OpenBabel03312015312D

 26 29  0  0  0  0  0  0  0  0999 V2000
   -1.6333   -2.7792    0.0000 C   0  0  0  0  0  0  0  0  0  0  0  0
   -1.6333   -2.0292    0.0000 C   0  0  0  0  0  0  0  0  0  0  0  0
   -0.9708   -3.1542    0.0000 N   0  0  0  0  0  0  0  0  0  0  0  0
   -2.9333   -2.0292    0.0000 C   0  0  0  0  0  0  0  0  0  0  0  0
   -2.2833   -3.1542    0.0000 N   0  0  0  0  0  0  0  0  0  0  0  0
   -0.9708   -1.6500    0.0000 N   0  0  0  0  0  0  0  0  0  0  0  0
    0.9667   -7.2792    0.0000 N   0  3  0  0  0  0  0  0  0  0  0  0
   -0.3208   -2.7792    0.0000 C   0  0  0  0  0  0  0  0  0  0  0  0
   -2.9333   -2.7792    0.0000 C   0  0  0  0  0  0  0  0  0  0  0  0
   -0.3208   -2.0292    0.0000 N   0  0  0  0  0  0  0  0  0  0  0  0
    0.9667   -6.5292    0.0000 C   0  0  0  0  0  0  0  0  0  0  0  0
    0.3167   -3.9042    0.0000 N   0  0  0  0  0  0  0  0  0  0  0  0
    0.3167   -7.6542    0.0000 O   0  5  0  0  0  0  0  0  0  0  0  0
   -3.5958   -1.6500    0.0000 C   0  0  0  0  0  0  0  0  0  0  0  0
    1.6167   -7.6542    0.0000 O   0  0  0  0  0  0  0  0  0  0  0  0
    0.3167   -3.1542    0.0000 N   0  0  0  0  0  0  0  0  0  0  0  0
   -3.5958   -3.1542    0.0000 C   0  0  0  0  0  0  0  0  0  0  0  0
    1.6167   -6.1542    0.0000 C   0  0  0  0  0  0  0  0  0  0  0  0
    0.3167   -6.1542    0.0000 C   0  0  0  0  0  0  0  0  0  0  0  0
    0.9667   -4.2792    0.0000 C   0  0  0  0  0  0  0  0  0  0  0  0
   -4.2458   -2.0292    0.0000 C   0  0  0  0  0  0  0  0  0  0  0  0
    0.9667   -5.0292    0.0000 C   0  0  0  0  0  0  0  0  0  0  0  0
   -4.2458   -2.7792    0.0000 C   0  0  0  0  0  0  0  0  0  0  0  0
    1.6167   -5.4042    0.0000 C   0  0  0  0  0  0  0  0  0  0  0  0
    0.3167   -5.4042    0.0000 C   0  0  0  0  0  0  0  0  0  0  0  0
   -4.8958   -1.6500    0.0000 Br  0  0  0  0  0  0  0  0  0  0  0  0
  2  1  1  0  0  0  0
  3  1  2  0  0  0  0
  4  2  1  0  0  0  0
  4  9  2  0  0  0  0
  5  1  1  0  0  0  0
  6  2  2  0  0  0  0
  7 11  1  0  0  0  0
  8  3  1  0  0  0  0
  9  5  1  0  0  0  0
 10  8  2  0  0  0  0
 10  6  1  0  0  0  0
 11 19  1  0  0  0  0
 11 18  2  0  0  0  0
 12 16  1  0  0  0  0
 13  7  1  0  0  0  0
 14  4  1  0  0  0  0
 15  7  2  0  0  0  0
 16  8  1  0  0  0  0
 17  9  1  0  0  0  0
 18 24  1  0  0  0  0
 19 25  2  0  0  0  0
 20 12  2  0  0  0  0
 21 14  2  0  0  0  0
 21 23  1  0  0  0  0
 22 20  1  0  0  0  0
 23 17  2  0  0  0  0
 24 22  2  0  0  0  0
 25 22  1  0  0  0  0
 26 21  1  0  0  0  0
M  CHG  2   7   1  13  -1
M  END
>  <ID>
5307401

>  <Supplier>
ChemBridge

>  <clogP>
4.400000000000000e+000

>  <RB>
3

>  <tPSA>
1.219900000000000e+002

>  <Hacc>
6

>  <Hdon>
2

>  <LogSw>
-7.462000000000000e+000

>  <Group>
1

>  <Core>
239

$$$$
6041701
 OpenBabel03312015312D

 20 21  0  0  0  0  0  0  0  0999 V2000
    0.2500    0.4500    0.0000 C   0  0  0  0  0  0  0  0  0  0  0  0
   -0.3208    1.3833    0.0000 C   0  0  0  0  0  0  0  0  0  0  0  0
    1.3292    0.4708    0.0000 C   0  0  0  0  0  0  0  0  0  0  0  0
    1.9000   -0.4542    0.0000 N   0  0  0  0  0  0  0  0  0  0  0  0
    3.0167   -0.4500    0.0000 C   0  0  0  0  0  0  0  0  0  0  0  0
   -1.4208    1.3500    0.0000 C   0  0  0  0  0  0  0  0  0  0  0  0
    0.1875    2.3458    0.0000 O   0  0  0  0  0  0  0  0  0  0  0  0
    3.5875   -1.3792    0.0000 C   0  0  0  0  0  0  0  0  0  0  0  0
   -1.9958    2.2958    0.0000 C   0  0  0  0  0  0  0  0  0  0  0  0
   -1.9458    0.3958    0.0000 C   0  0  0  0  0  0  0  0  0  0  0  0
   -3.6000    1.2833    0.0000 C   0  0  0  0  0  0  0  0  0  0  0  0
   -3.0833    2.2500    0.0000 C   0  0  0  0  0  0  0  0  0  0  0  0
   -3.0208    0.3500    0.0000 C   0  0  0  0  0  0  0  0  0  0  0  0
   -4.6958    1.2333    0.0000 Cl  0  0  0  0  0  0  0  0  0  0  0  0
    3.0500   -2.3375    0.0000 O   0  0  0  0  0  0  0  0  0  0  0  0
    1.8500    1.4458    0.0000 C   0  0  0  0  0  0  0  0  0  0  0  0
    3.5667    0.5333    0.0000 C   0  0  0  0  0  0  0  0  0  0  0  0
    4.6875   -1.3792    0.0000 C   0  0  0  0  0  0  0  0  0  0  0  0
    4.6792    0.5500    0.0000 C   0  0  0  0  0  0  0  0  0  0  0  0
    5.2375   -0.4000    0.0000 C   0  0  0  0  0  0  0  0  0  0  0  0
  2  1  1  0  0  0  0
  3  1  2  0  0  0  0
  4  3  1  0  0  0  0
  5  4  1  0  0  0  0
  6  2  1  0  0  0  0
  7  2  2  0  0  0  0
  8  5  2  0  0  0  0
  9  6  2  0  0  0  0
 10  6  1  0  0  0  0
 11 13  1  0  0  0  0
 11 12  2  0  0  0  0
 12  9  1  0  0  0  0
 13 10  2  0  0  0  0
 14 11  1  0  0  0  0
 15  8  1  0  0  0  0
 16  3  1  0  0  0  0
 17  5  1  0  0  0  0
 18  8  1  0  0  0  0
 18 20  2  0  0  0  0
 19 17  2  0  0  0  0
 20 19  1  0  0  0  0
M  END
>  <ID>
6041701

>  <Supplier>
ChemBridge

>  <clogP>
3.940000000000000e+000

>  <RB>
4

>  <tPSA>
4.933000000000001e+001

>  <Hacc>
2

>  <Hdon>
2

>  <LogSw>
-4.663999999999998e+000

>  <Group>
1

>  <Core>
208

$$$$
7802380
 OpenBabel03312015312D

 23 25  0  0  0  0  0  0  0  0999 V2000
    5.2500   -2.9917    0.0000 N   0  0  0  0  0  0  0  0  0  0  0  0
    5.1125   -4.3167    0.0000 N   0  0  0  0  0  0  0  0  0  0  0  0
    5.6625   -3.7125    0.0000 C   0  0  0  0  0  0  0  0  0  0  0  0
    4.4417   -3.1667    0.0000 N   0  0  0  0  0  0  0  0  0  0  0  0
    4.3542   -3.9917    0.0000 C   0  0  0  0  0  0  0  0  0  0  0  0
    5.5792   -2.2417    0.0000 C   0  0  0  0  0  0  0  0  0  0  0  0
    6.4792   -3.7917    0.0000 N   0  0  0  0  0  0  0  0  0  0  0  0
    3.6500   -4.4042    0.0000 C   0  0  0  0  0  0  0  0  0  0  0  0
    5.0917   -1.5792    0.0000 O   0  0  0  0  0  0  0  0  0  0  0  0
    2.9292   -3.9917    0.0000 C   0  0  0  0  0  0  0  0  0  0  0  0
    3.6500   -5.2375    0.0000 C   0  0  0  0  0  0  0  0  0  0  0  0
    6.8250   -4.5417    0.0000 C   0  0  0  0  0  0  0  0  0  0  0  0
    2.2167   -5.2375    0.0000 C   0  0  0  0  0  0  0  0  0  0  0  0
    2.9292   -5.6500    0.0000 C   0  0  0  0  0  0  0  0  0  0  0  0
    2.2167   -4.4125    0.0000 C   0  0  0  0  0  0  0  0  0  0  0  0
    1.5042   -5.6417    0.0000 Cl  0  0  0  0  0  0  0  0  0  0  0  0
    7.6417   -4.6292    0.0000 C   0  0  0  0  0  0  0  0  0  0  0  0
    6.4000   -2.1542    0.0000 C   0  0  0  0  0  0  0  0  0  0  0  0
    8.1167   -3.9625    0.0000 C   0  0  0  0  0  0  0  0  0  0  0  0
    7.9792   -5.3792    0.0000 C   0  0  0  0  0  0  0  0  0  0  0  0
    8.8000   -5.4667    0.0000 C   0  0  0  0  0  0  0  0  0  0  0  0
    8.9417   -4.0417    0.0000 C   0  0  0  0  0  0  0  0  0  0  0  0
    9.2792   -4.7917    0.0000 C   0  0  0  0  0  0  0  0  0  0  0  0
  2  3  2  0  0  0  0
  2  5  1  0  0  0  0
  3  1  1  0  0  0  0
  4  1  1  0  0  0  0
  5  4  2  0  0  0  0
  6  1  1  0  0  0  0
  7  3  1  0  0  0  0
  8  5  1  0  0  0  0
  9  6  2  0  0  0  0
 10  8  2  0  0  0  0
 11  8  1  0  0  0  0
 12  7  1  0  0  0  0
 13 14  1  0  0  0  0
 13 15  2  0  0  0  0
 14 11  2  0  0  0  0
 15 10  1  0  0  0  0
 16 13  1  0  0  0  0
 17 12  1  0  0  0  0
 18  6  1  0  0  0  0
 19 17  1  0  0  0  0
 20 17  2  0  0  0  0
 21 20  1  0  0  0  0
 22 19  2  0  0  0  0
 23 21  2  0  0  0  0
 23 22  1  0  0  0  0
M  END
>  <ID>
7802380

>  <Supplier>
ChemBridge

>  <clogP>
4.319999999999999e+000

>  <RB>
4

>  <tPSA>
5.981000000000002e+001

>  <Hacc>
3

>  <Hdon>
1

>  <LogSw>
-5.272000000000000e+000

>  <Group>
2

>  <Core>
323

$$$$
7970445
 OpenBabel03312015312D

 31 34  0  0  0  0  0  0  0  0999 V2000
    6.7625    1.1583    0.0000 S   0  0  0  0  0  0  0  0  0  0  0  0
    4.1625    3.4083    0.0000 C   0  0  0  0  0  0  0  0  0  0  0  0
    3.5167    3.0333    0.0000 N   0  0  0  0  0  0  0  0  0  0  0  0
    2.2167    2.2833    0.0000 N   0  0  0  0  0  0  0  0  0  0  0  0
    6.7625    1.9083    0.0000 N   0  0  0  0  0  0  0  0  0  0  0  0
    1.5667    1.9083    0.0000 C   0  0  0  0  0  0  0  0  0  0  0  0
    6.0167    1.2250    0.0000 O   0  0  0  0  0  0  0  0  0  0  0  0
    6.6292    0.4208    0.0000 O   0  0  0  0  0  0  0  0  0  0  0  0
    7.4875    0.9625    0.0000 C   0  0  0  0  0  0  0  0  0  0  0  0
    4.8125    3.0333    0.0000 C   0  0  0  0  0  0  0  0  0  0  0  0
    3.5167    2.2833    0.0000 C   0  0  0  0  0  0  0  0  0  0  0  0
    2.8667    3.4083    0.0000 C   0  0  0  0  0  0  0  0  0  0  0  0
    2.2167    3.0333    0.0000 C   0  0  0  0  0  0  0  0  0  0  0  0
    2.8667    1.9083    0.0000 C   0  0  0  0  0  0  0  0  0  0  0  0
    4.1625    4.1542    0.0000 O   0  0  0  0  0  0  0  0  0  0  0  0
    0.9167    2.2833    0.0000 C   0  0  0  0  0  0  0  0  0  0  0  0
    6.1125    2.2833    0.0000 C   0  0  0  0  0  0  0  0  0  0  0  0
    5.4625    3.4083    0.0000 C   0  0  0  0  0  0  0  0  0  0  0  0
    4.8125    2.2833    0.0000 C   0  0  0  0  0  0  0  0  0  0  0  0
    0.9167    3.0333    0.0000 F   0  0  0  0  0  0  0  0  0  0  0  0
    5.4625    1.9083    0.0000 C   0  0  0  0  0  0  0  0  0  0  0  0
    6.1125    3.0333    0.0000 C   0  0  0  0  0  0  0  0  0  0  0  0
    1.5667    1.1583    0.0000 C   0  0  0  0  0  0  0  0  0  0  0  0
    7.6792    0.2375    0.0000 C   0  0  0  0  0  0  0  0  0  0  0  0
    8.0167    1.4958    0.0000 C   0  0  0  0  0  0  0  0  0  0  0  0
    0.2667    1.9083    0.0000 C   0  0  0  0  0  0  0  0  0  0  0  0
    0.9167    0.7833    0.0000 C   0  0  0  0  0  0  0  0  0  0  0  0
    8.4042    0.0458    0.0000 C   0  0  0  0  0  0  0  0  0  0  0  0
    8.7417    1.3000    0.0000 C   0  0  0  0  0  0  0  0  0  0  0  0
    0.2667    1.1583    0.0000 C   0  0  0  0  0  0  0  0  0  0  0  0
    8.9375    0.5750    0.0000 C   0  0  0  0  0  0  0  0  0  0  0  0
  2 10  1  0  0  0  0
  3  2  1  0  0  0  0
  4 13  1  0  0  0  0
  5  1  1  0  0  0  0
  6  4  1  0  0  0  0
  7  1  2  0  0  0  0
  8  1  2  0  0  0  0
  9  1  1  0  0  0  0
 10 18  1  0  0  0  0
 10 19  2  0  0  0  0
 11  3  1  0  0  0  0
 12  3  1  0  0  0  0
 13 12  1  0  0  0  0
 14 11  1  0  0  0  0
 14  4  1  0  0  0  0
 15  2  2  0  0  0  0
 16  6  2  0  0  0  0
 17  5  1  0  0  0  0
 18 22  2  0  0  0  0
 19 21  1  0  0  0  0
 20 16  1  0  0  0  0
 21 17  2  0  0  0  0
 22 17  1  0  0  0  0
 23  6  1  0  0  0  0
 24  9  2  0  0  0  0
 25  9  1  0  0  0  0
 26 16  1  0  0  0  0
 26 30  2  0  0  0  0
 27 23  2  0  0  0  0
 28 24  1  0  0  0  0
 29 25  2  0  0  0  0
 30 27  1  0  0  0  0
 31 29  1  0  0  0  0
 31 28  2  0  0  0  0
M  END
>  <ID>
7970445

>  <Supplier>
ChemBridge

>  <clogP>
3.060000000000000e+000

>  <RB>
4

>  <tPSA>
6.972000000000000e+001

>  <Hacc>
3

>  <Hdon>
1

>  <LogSw>
-5.017000000000000e+000

>  <Group>
2

>  <Core>
152

$$$$
7962221
 OpenBabel03312015312D

 27 28  0  0  0  0  0  0  0  0999 V2000
    6.8667    2.3458    0.0000 S   0  0  0  0  0  0  0  0  0  0  0  0
    3.6167    2.7208    0.0000 S   0  0  0  0  0  0  0  0  0  0  0  0
    6.2167    2.7208    0.0000 N   0  0  0  0  0  0  0  0  0  0  0  0
    5.5667    2.3458    0.0000 C   0  0  0  0  0  0  0  0  0  0  0  0
    4.9167    2.7208    0.0000 C   0  0  0  0  0  0  0  0  0  0  0  0
    4.2667    2.3458    0.0000 C   0  0  0  0  0  0  0  0  0  0  0  0
    5.5667    1.5958    0.0000 C   0  0  0  0  0  0  0  0  0  0  0  0
    4.2667    1.5958    0.0000 C   0  0  0  0  0  0  0  0  0  0  0  0
    4.9167    1.2208    0.0000 C   0  0  0  0  0  0  0  0  0  0  0  0
    6.4292    1.7333    0.0000 O   0  0  0  0  0  0  0  0  0  0  0  0
    7.4375    1.8708    0.0000 O   0  0  0  0  0  0  0  0  0  0  0  0
    7.3917    2.8833    0.0000 C   0  0  0  0  0  0  0  0  0  0  0  0
    4.0417    3.3375    0.0000 O   0  0  0  0  0  0  0  0  0  0  0  0
    3.0417    3.2083    0.0000 O   0  0  0  0  0  0  0  0  0  0  0  0
    3.0875    2.1958    0.0000 N   0  0  0  0  0  0  0  0  0  0  0  0
    6.2167    3.4708    0.0000 C   0  0  0  0  0  0  0  0  0  0  0  0
    4.9167    3.4708    0.0000 C   0  0  0  0  0  0  0  0  0  0  0  0
    2.3625    2.3958    0.0000 C   0  0  0  0  0  0  0  0  0  0  0  0
    6.2167    1.2208    0.0000 C   0  0  0  0  0  0  0  0  0  0  0  0
    3.6167    1.2208    0.0000 C   0  0  0  0  0  0  0  0  0  0  0  0
    1.1042    2.0500    0.0000 O   0  0  0  0  0  0  0  0  0  0  0  0
    8.1167    2.6833    0.0000 C   0  0  0  0  0  0  0  0  0  0  0  0
    7.2000    3.6083    0.0000 C   0  0  0  0  0  0  0  0  0  0  0  0
    1.8292    1.8583    0.0000 C   0  0  0  0  0  0  0  0  0  0  0  0
    7.7292    4.1292    0.0000 C   0  0  0  0  0  0  0  0  0  0  0  0
    8.6500    3.2125    0.0000 C   0  0  0  0  0  0  0  0  0  0  0  0
    8.4542    3.9375    0.0000 C   0  0  0  0  0  0  0  0  0  0  0  0
  2  6  1  0  0  0  0
  3  1  1  0  0  0  0
  4  3  1  0  0  0  0
  5  4  1  0  0  0  0
  6  5  2  0  0  0  0
  6  8  1  0  0  0  0
  7  4  2  0  0  0  0
  8  9  2  0  0  0  0
  9  7  1  0  0  0  0
 10  1  2  0  0  0  0
 11  1  2  0  0  0  0
 12  1  1  0  0  0  0
 13  2  2  0  0  0  0
 14  2  2  0  0  0  0
 15  2  1  0  0  0  0
 16  3  1  0  0  0  0
 17  5  1  0  0  0  0
 18 15  1  0  0  0  0
 19  7  1  0  0  0  0
 20  8  1  0  0  0  0
 21 24  1  0  0  0  0
 22 12  1  0  0  0  0
 23 12  2  0  0  0  0
 24 18  1  0  0  0  0
 25 23  1  0  0  0  0
 26 22  2  0  0  0  0
 26 27  1  0  0  0  0
 27 25  2  0  0  0  0
M  END
>  <ID>
7962221

>  <Supplier>
ChemBridge

>  <clogP>
2.029000000000000e+000

>  <RB>
5

>  <tPSA>
1.037800000000000e+002

>  <Hacc>
6

>  <Hdon>
2

>  <LogSw>
-3.940000000000000e+000

>  <Group>
2

>  <Core>
516

$$$$
5889805
 OpenBabel03312015312D

 24 26  0  0  0  0  0  0  0  0999 V2000
    4.8667   -3.4375    0.0000 N   0  0  0  0  0  0  0  0  0  0  0  0
    6.1667   -2.6875    0.0000 N   0  0  0  0  0  0  0  0  0  0  0  0
    7.9625   -2.9625    0.0000 C   0  0  0  0  0  0  0  0  0  0  0  0
    6.8167   -2.3125    0.0000 N   0  0  0  0  0  0  0  0  0  0  0  0
    4.2167   -3.8125    0.0000 C   0  0  0  0  0  0  0  0  0  0  0  0
    7.5875   -2.3125    0.0000 C   0  0  0  0  0  0  0  0  0  0  0  0
    8.7167   -2.9667    0.0000 C   0  0  0  0  0  0  0  0  0  0  0  0
    4.8667   -2.6875    0.0000 C   0  0  0  0  0  0  0  0  0  0  0  0
    5.5167   -3.8125    0.0000 C   0  0  0  0  0  0  0  0  0  0  0  0
    6.1667   -3.4375    0.0000 C   0  0  0  0  0  0  0  0  0  0  0  0
    5.5167   -2.3125    0.0000 C   0  0  0  0  0  0  0  0  0  0  0  0
    7.5875   -3.6125    0.0000 C   0  0  0  0  0  0  0  0  0  0  0  0
    3.5667   -3.4292    0.0000 C   0  0  0  0  0  0  0  0  0  0  0  0
    9.0875   -3.6167    0.0000 C   0  0  0  0  0  0  0  0  0  0  0  0
    7.9625   -4.2667    0.0000 C   0  0  0  0  0  0  0  0  0  0  0  0
    8.7125   -4.2667    0.0000 C   0  0  0  0  0  0  0  0  0  0  0  0
    7.5875   -4.9125    0.0000 Br  0  0  0  0  0  0  0  0  0  0  0  0
    9.0917   -2.3167    0.0000 O   0  0  0  0  0  0  0  0  0  0  0  0
    3.5750   -2.6792    0.0000 O   0  0  0  0  0  0  0  0  0  0  0  0
    4.2167   -4.5625    0.0000 C   0  0  0  0  0  0  0  0  0  0  0  0
    2.9250   -3.8042    0.0000 C   0  0  0  0  0  0  0  0  0  0  0  0
    2.9250   -2.3042    0.0000 C   0  0  0  0  0  0  0  0  0  0  0  0
    3.5667   -4.9292    0.0000 C   0  0  0  0  0  0  0  0  0  0  0  0
    2.9167   -4.5542    0.0000 C   0  0  0  0  0  0  0  0  0  0  0  0
  2 10  1  0  0  0  0
  2 11  1  0  0  0  0
  3  6  1  0  0  0  0
  4  2  1  0  0  0  0
  5  1  1  0  0  0  0
  6  4  2  0  0  0  0
  7  3  1  0  0  0  0
  8  1  1  0  0  0  0
  9  1  1  0  0  0  0
 10  9  1  0  0  0  0
 11  8  1  0  0  0  0
 12  3  2  0  0  0  0
 13  5  1  0  0  0  0
 14  7  2  0  0  0  0
 14 16  1  0  0  0  0
 15 12  1  0  0  0  0
 16 15  2  0  0  0  0
 17 15  1  0  0  0  0
 18  7  1  0  0  0  0
 19 13  1  0  0  0  0
 20  5  2  0  0  0  0
 21 13  2  0  0  0  0
 21 24  1  0  0  0  0
 22 19  1  0  0  0  0
 23 20  1  0  0  0  0
 24 23  2  0  0  0  0
M  END
>  <ID>
5889805

>  <Supplier>
ChemBridge

>  <clogP>
3.570000000000000e+000

>  <RB>
3

>  <tPSA>
4.830000000000000e+001

>  <Hacc>
3

>  <Hdon>
1

>  <LogSw>
-4.513999999999999e+000

>  <Group>
2

>  <Core>
459

$$$$
6049133
 OpenBabel03312015312D

 24 26  0  0  0  0  0  0  0  0999 V2000
    0.4000    1.1208    0.0000 C   0  0  0  0  0  0  0  0  0  0  0  0
    0.4000    0.1833    0.0000 C   0  0  0  0  0  0  0  0  0  0  0  0
    2.8375   -0.3000    0.0000 C   0  0  0  0  0  0  0  0  0  0  0  0
    2.0542    0.1833    0.0000 N   0  0  0  0  0  0  0  0  0  0  0  0
    1.2292   -0.3000    0.0000 C   0  0  0  0  0  0  0  0  0  0  0  0
    3.7167    0.0125    0.0000 C   0  0  0  0  0  0  0  0  0  0  0  0
   -0.4125    1.5708    0.0000 N   0  0  0  0  0  0  0  0  0  0  0  0
    4.5042   -0.5000    0.0000 S   0  0  0  0  0  0  0  0  0  0  0  0
    1.2292    1.5708    0.0000 O   0  0  0  0  0  0  0  0  0  0  0  0
    3.9375    0.8958    0.0000 C   0  0  0  0  0  0  0  0  0  0  0  0
    2.8375   -1.0542    0.0000 O   0  0  0  0  0  0  0  0  0  0  0  0
    5.2375    0.0958    0.0000 C   0  0  0  0  0  0  0  0  0  0  0  0
    4.9000    0.9500    0.0000 C   0  0  0  0  0  0  0  0  0  0  0  0
   -1.2000    1.1000    0.0000 C   0  0  0  0  0  0  0  0  0  0  0  0
   -2.8000    0.1000    0.0000 C   0  0  0  0  0  0  0  0  0  0  0  0
   -3.5833   -0.3875    0.0000 Br  0  0  0  0  0  0  0  0  0  0  0  0
   -0.4125   -0.3000    0.0000 C   0  0  0  0  0  0  0  0  0  0  0  0
   -2.0458    1.5458    0.0000 C   0  0  0  0  0  0  0  0  0  0  0  0
   -1.1833    0.1833    0.0000 C   0  0  0  0  0  0  0  0  0  0  0  0
   -2.8333    1.0458    0.0000 C   0  0  0  0  0  0  0  0  0  0  0  0
   -1.9708   -0.3292    0.0000 C   0  0  0  0  0  0  0  0  0  0  0  0
    1.2292   -1.2375    0.0000 C   0  0  0  0  0  0  0  0  0  0  0  0
   -0.4125   -1.2375    0.0000 C   0  0  0  0  0  0  0  0  0  0  0  0
    0.4000   -1.7000    0.0000 C   0  0  0  0  0  0  0  0  0  0  0  0
  2  1  1  0  0  0  0
  3  4  1  0  0  0  0
  4  5  1  0  0  0  0
  5  2  1  0  0  0  0
  6  3  1  0  0  0  0
  7  1  1  0  0  0  0
  8  6  1  0  0  0  0
  9  1  2  0  0  0  0
 10  6  2  0  0  0  0
 11  3  2  0  0  0  0
 12  8  1  0  0  0  0
 13 10  1  0  0  0  0
 13 12  2  0  0  0  0
 14  7  1  0  0  0  0
 15 21  1  0  0  0  0
 15 20  2  0  0  0  0
 16 15  1  0  0  0  0
 17  2  2  0  0  0  0
 18 14  2  0  0  0  0
 19 14  1  0  0  0  0
 20 18  1  0  0  0  0
 21 19  2  0  0  0  0
 22  5  2  0  0  0  0
 22 24  1  0  0  0  0
 23 17  1  0  0  0  0
 24 23  2  0  0  0  0
M  END
>  <ID>
6049133

>  <Supplier>
ChemBridge

>  <clogP>
4.609999999999999e+000

>  <RB>
4

>  <tPSA>
5.820000000000000e+001

>  <Hacc>
2

>  <Hdon>
2

>  <LogSw>
-6.061999999999999e+000

>  <Group>
2

>  <Core>
141

$$$$
5825005
 OpenBabel03312015312D

 30 33  0  0  0  0  0  0  0  0999 V2000
    0.5042    0.1208    0.0000 C   0  0  0  0  0  0  0  0  0  0  0  0
    0.5042    0.6625    0.0000 N   0  0  0  0  0  0  0  0  0  0  0  0
    0.9667    0.9208    0.0000 C   0  0  0  0  0  0  0  0  0  0  0  0
    0.0042   -0.0292    0.0000 C   0  0  0  0  0  0  0  0  0  0  0  0
   -0.2958    0.3833    0.0000 C   0  0  0  0  0  0  0  0  0  0  0  0
    0.0042    0.8208    0.0000 N   0  0  0  0  0  0  0  0  0  0  0  0
    0.9667   -0.1375    0.0000 N   0  0  0  0  0  0  0  0  0  0  0  0
    1.4292    0.6625    0.0000 C   0  0  0  0  0  0  0  0  0  0  0  0
    1.4292    0.1208    0.0000 C   0  0  0  0  0  0  0  0  0  0  0  0
    0.9667    1.4458    0.0000 C   0  0  0  0  0  0  0  0  0  0  0  0
   -0.8333    0.3833    0.0000 C   0  0  0  0  0  0  0  0  0  0  0  0
   -1.0958   -0.0792    0.0000 N   0  0  0  0  0  0  0  0  0  0  0  0
    1.8667   -0.1375    0.0000 C   0  0  0  0  0  0  0  0  0  0  0  0
   -0.1708   -0.5542    0.0000 Cl  0  0  0  0  0  0  0  0  0  0  0  0
   -1.0958    0.8458    0.0000 O   0  0  0  0  0  0  0  0  0  0  0  0
    1.5042    1.4458    0.0000 F   0  0  0  0  0  0  0  0  0  0  0  0
    0.4500    1.4458    0.0000 F   0  0  0  0  0  0  0  0  0  0  0  0
    0.9667    1.9833    0.0000 F   0  0  0  0  0  0  0  0  0  0  0  0
   -1.6625   -1.0292    0.0000 O   0  0  0  0  0  0  0  0  0  0  0  0
    1.8667   -0.6542    0.0000 C   0  0  0  0  0  0  0  0  0  0  0  0
    2.3292    0.1208    0.0000 C   0  0  0  0  0  0  0  0  0  0  0  0
   -1.6125   -0.0792    0.0000 C   0  0  0  0  0  0  0  0  0  0  0  0
   -1.8708   -0.5292    0.0000 C   0  0  3  0  0  0  0  0  0  0  0  0
    2.7875   -0.1375    0.0000 C   0  0  0  0  0  0  0  0  0  0  0  0
    2.3042   -0.9167    0.0000 C   0  0  0  0  0  0  0  0  0  0  0  0
    2.7875   -0.6542    0.0000 C   0  0  0  0  0  0  0  0  0  0  0  0
   -2.0625   -1.3667    0.0000 C   0  0  0  0  0  0  0  0  0  0  0  0
    3.2500   -0.9042    0.0000 C   0  0  0  0  0  0  0  0  0  0  0  0
   -2.4000   -0.5667    0.0000 C   0  0  0  0  0  0  0  0  0  0  0  0
   -2.5125   -1.1042    0.0000 C   0  0  0  0  0  0  0  0  0  0  0  0
  2  1  1  0  0  0  0
  3  2  1  0  0  0  0
  4  1  2  0  0  0  0
  5  4  1  0  0  0  0
  6  2  1  0  0  0  0
  6  5  2  0  0  0  0
  7  1  1  0  0  0  0
  8  9  1  0  0  0  0
  8  3  2  0  0  0  0
  9  7  2  0  0  0  0
 10  3  1  0  0  0  0
 11  5  1  0  0  0  0
 12 11  1  0  0  0  0
 13  9  1  0  0  0  0
 14  4  1  0  0  0  0
 15 11  2  0  0  0  0
 16 10  1  0  0  0  0
 17 10  1  0  0  0  0
 18 10  1  0  0  0  0
 19 23  1  0  0  0  0
 20 13  1  0  0  0  0
 21 13  2  0  0  0  0
 22 12  1  0  0  0  0
 23 22  1  0  0  0  0
 24 21  1  0  0  0  0
 25 20  2  0  0  0  0
 26 24  2  0  0  0  0
 26 25  1  0  0  0  0
 27 19  1  0  0  0  0
 28 26  1  0  0  0  0
 29 23  1  0  0  0  0
 30 29  1  0  0  0  0
 30 27  1  0  0  0  0
M  END
>  <ID>
5825005

>  <Supplier>
ChemBridge

>  <clogP>
4.710000000000000e+000

>  <RB>
4

>  <tPSA>
6.852000000000000e+001

>  <Hacc>
5

>  <Hdon>
1

>  <LogSw>
-6.421000000000000e+000

>  <Group>
3

>  <Core>
054

$$$$
5701088
 OpenBabel03312015312D

 23 25  0  0  0  0  0  0  0  0999 V2000
   -0.5625    1.0708    0.0000 C   0  0  0  0  0  0  0  0  0  0  0  0
    3.9042    1.2458    0.0000 C   0  0  0  0  0  0  0  0  0  0  0  0
   -2.9458   -2.8875    0.0000 C   0  0  0  0  0  0  0  0  0  0  0  0
    4.7542    5.6042    0.0000 N   0  0  0  0  0  0  0  0  0  0  0  0
   -7.3792   -2.8875    0.0000 N   0  0  0  0  0  0  0  0  0  0  0  0
    6.7375   -2.0375    0.0000 C   0  0  0  0  0  0  0  0  0  0  0  0
    0.9542    7.8167    0.0000 O   0  0  0  0  0  0  0  0  0  0  0  0
   -2.2125    4.8667    0.0000 C   0  0  0  0  0  0  0  0  0  0  0  0
   -9.5000    0.8833    0.0000 C   0  0  0  0  0  0  0  0  0  0  0  0
  -13.8667    0.8833    0.0000 N   0  0  0  0  0  0  0  0  0  0  0  0
   -0.8500   -6.8000    0.0000 O   0  0  0  0  0  0  0  0  0  0  0  0
   11.0500   -1.3000    0.0000 C   0  0  0  0  0  0  0  0  0  0  0  0
   -7.3792    4.6542    0.0000 C   0  0  0  0  0  0  0  0  0  0  0  0
   12.5167    2.7708    0.0000 Cl  0  0  0  0  0  0  0  0  0  0  0  0
   -2.1333    4.5292    0.0000 Cl  0  0  0  0  0  0  0  0  0  0  0  0
    5.4375   -6.2875    0.0000 C   0  0  0  0  0  0  0  0  0  0  0  0
   -6.5042    5.9500    0.0000 C   0  0  0  0  0  0  0  0  0  0  0  0
  -16.0000    4.6542    0.0000 C   0  0  0  0  0  0  0  0  0  0  0  0
   13.9375   -4.4667    0.0000 C   0  0  0  0  0  0  0  0  0  0  0  0
   -9.5000    8.5500    0.0000 C   0  0  0  0  0  0  0  0  0  0  0  0
    8.2667   -9.5167    0.0000 C   0  0  0  0  0  0  0  0  0  0  0  0
  -13.8667    8.5500    0.0000 C   0  0  0  0  0  0  0  0  0  0  0  0
   12.6292   -8.6667    0.0000 C   0  0  0  0  0  0  0  0  0  0  0  0
  2  1  1  0  0  0  0
  3  1  1  0  0  0  0
  4  2  2  0  0  0  0
  5  3  1  0  0  0  0
  6  2  1  0  0  0  0
  7  8  1  0  0  0  0
  7  4  1  0  0  0  0
  8  1  2  0  0  0  0
  9  5  1  0  0  0  0
 10  9  2  0  0  0  0
 11  3  2  0  0  0  0
 12  6  1  0  0  0  0
 13  9  1  0  0  0  0
 14 12  1  0  0  0  0
 15 13  1  0  0  0  0
 16  6  2  0  0  0  0
 17  8  1  0  0  0  0
 18 10  1  0  0  0  0
 18 22  2  0  0  0  0
 19 12  2  0  0  0  0
 19 23  1  0  0  0  0
 20 13  2  0  0  0  0
 21 16  1  0  0  0  0
 22 20  1  0  0  0  0
 23 21  2  0  0  0  0
M  END
>  <ID>
5701088

>  <Supplier>
ChemBridge

>  <clogP>
2.080000000000000e+000

>  <RB>
3

>  <tPSA>
6.802000000000000e+001

>  <Hacc>
4

>  <Hdon>
1

>  <LogSw>
-3.515000000000000e+000

>  <Group>
2

>  <Core>
213

$$$$
5825000
 OpenBabel03312015312D

 30 34  0  0  0  0  0  0  0  0999 V2000
   -0.6625    0.7958    0.0000 N   0  0  0  0  0  0  0  0  0  0  0  0
   -1.3000    1.1708    0.0000 C   0  0  0  0  0  0  0  0  0  0  0  0
   -0.6625    0.0500    0.0000 C   0  0  0  0  0  0  0  0  0  0  0  0
   -1.9458    0.7958    0.0000 C   0  0  0  0  0  0  0  0  0  0  0  0
    0.0542    1.0333    0.0000 N   0  0  0  0  0  0  0  0  0  0  0  0
   -1.9458    0.0500    0.0000 C   0  0  0  0  0  0  0  0  0  0  0  0
   -1.3000   -0.3292    0.0000 N   0  0  0  0  0  0  0  0  0  0  0  0
    0.4792    0.4333    0.0000 C   0  0  0  0  0  0  0  0  0  0  0  0
    0.0542   -0.1875    0.0000 C   0  0  0  0  0  0  0  0  0  0  0  0
   -1.3000    1.9125    0.0000 C   0  0  0  0  0  0  0  0  0  0  0  0
    1.2375    0.4333    0.0000 C   0  0  0  0  0  0  0  0  0  0  0  0
   -2.5833   -0.3292    0.0000 C   0  0  0  0  0  0  0  0  0  0  0  0
   -2.5833    1.1708    0.0000 C   0  0  0  0  0  0  0  0  0  0  0  0
    1.6000   -0.2292    0.0000 N   0  0  0  0  0  0  0  0  0  0  0  0
    3.4667    0.4708    0.0000 S   0  0  0  0  0  0  0  0  0  0  0  0
    2.7292    0.4125    0.0000 C   0  0  0  0  0  0  0  0  0  0  0  0
   -3.2208    0.0500    0.0000 C   0  0  0  0  0  0  0  0  0  0  0  0
    3.6375    1.2333    0.0000 C   0  0  0  0  0  0  0  0  0  0  0  0
    1.6000    1.0708    0.0000 O   0  0  0  0  0  0  0  0  0  0  0  0
   -3.2208    0.7958    0.0000 C   0  0  0  0  0  0  0  0  0  0  0  0
    2.4417    1.1208    0.0000 C   0  0  0  0  0  0  0  0  0  0  0  0
    2.9875    1.5958    0.0000 C   0  0  0  0  0  0  0  0  0  0  0  0
   -0.5458    1.9125    0.0000 F   0  0  0  0  0  0  0  0  0  0  0  0
   -2.0458    1.9125    0.0000 F   0  0  0  0  0  0  0  0  0  0  0  0
   -1.3000    2.6708    0.0000 F   0  0  0  0  0  0  0  0  0  0  0  0
    2.3542   -0.2292    0.0000 C   0  0  0  0  0  0  0  0  0  0  0  0
   -2.5833   -1.0875    0.0000 C   0  0  0  0  0  0  0  0  0  0  0  0
   -3.8625   -0.3292    0.0000 C   0  0  0  0  0  0  0  0  0  0  0  0
   -3.2208   -1.4500    0.0000 C   0  0  0  0  0  0  0  0  0  0  0  0
   -3.8625   -1.0875    0.0000 C   0  0  0  0  0  0  0  0  0  0  0  0
  2  1  1  0  0  0  0
  3  1  1  0  0  0  0
  4  2  2  0  0  0  0
  5  1  1  0  0  0  0
  6  7  2  0  0  0  0
  6  4  1  0  0  0  0
  7  3  1  0  0  0  0
  8  5  2  0  0  0  0
  8  9  1  0  0  0  0
  9  3  2  0  0  0  0
 10  2  1  0  0  0  0
 11  8  1  0  0  0  0
 12  6  1  0  0  0  0
 13  4  1  0  0  0  0
 14 11  1  0  0  0  0
 15 16  1  0  0  0  0
 16 26  1  0  0  0  0
 17 12  1  0  0  0  0
 17 20  1  0  0  0  0
 18 15  1  0  0  0  0
 19 11  2  0  0  0  0
 20 13  1  0  0  0  0
 21 16  2  0  0  0  0
 22 21  1  0  0  0  0
 22 18  2  0  0  0  0
 23 10  1  0  0  0  0
 24 10  1  0  0  0  0
 25 10  1  0  0  0  0
 26 14  1  0  0  0  0
 27 12  2  0  0  0  0
 28 17  2  0  0  0  0
 28 30  1  0  0  0  0
 29 27  1  0  0  0  0
 30 29  2  0  0  0  0
M  END
>  <ID>
5825000

>  <Supplier>
ChemBridge

>  <clogP>
5.760000000000000e+000

>  <RB>
3

>  <tPSA>
5.929000000000001e+001

>  <Hacc>
4

>  <Hdon>
1

>  <LogSw>
-8.352000000000004e+000

>  <Group>
3

>  <Core>
054

$$$$
5701086
 OpenBabel03312015312D

 30 33  0  0  0  0  0  0  0  0999 V2000
  -12.7792    7.0667    0.0000 N   0  3  0  0  0  0  0  0  0  0  0  0
   -3.2208    6.9792    0.0000 C   0  0  0  0  0  0  0  0  0  0  0  0
   -1.5708    4.2042    0.0000 C   0  0  0  0  0  0  0  0  0  0  0  0
  -11.1875    9.8167    0.0000 C   0  0  0  0  0  0  0  0  0  0  0  0
    1.5667   -1.2792    0.0000 N   0  0  0  0  0  0  0  0  0  0  0  0
   -6.4375    6.9792    0.0000 N   0  0  0  0  0  0  0  0  0  0  0  0
   -1.5708   -1.3542    0.0000 C   0  0  0  0  0  0  0  0  0  0  0  0
   -3.1833    1.4458    0.0000 C   0  0  0  0  0  0  0  0  0  0  0  0
   -8.0000    9.8167    0.0000 C   0  0  0  0  0  0  0  0  0  0  0  0
    1.5667    4.2042    0.0000 C   0  0  0  0  0  0  0  0  0  0  0  0
    3.1375    1.4458    0.0000 C   0  0  0  0  0  0  0  0  0  0  0  0
  -16.0000    6.8000    0.0000 O   0  5  0  0  0  0  0  0  0  0  0  0
  -11.3792    4.2000    0.0000 O   0  0  0  0  0  0  0  0  0  0  0  0
   -3.2208   -4.0375    0.0000 C   0  0  0  0  0  0  0  0  0  0  0  0
   -1.6500    9.7875    0.0000 O   0  0  0  0  0  0  0  0  0  0  0  0
   -6.4375   -4.0375    0.0000 C   0  0  0  0  0  0  0  0  0  0  0  0
   -1.6500   -6.8042    0.0000 C   0  0  0  0  0  0  0  0  0  0  0  0
   -3.2208   -9.6167    0.0000 C   0  0  0  0  0  0  0  0  0  0  0  0
   -8.0042   -6.7667    0.0000 C   0  0  0  0  0  0  0  0  0  0  0  0
   -6.4375   -9.5375    0.0000 C   0  0  0  0  0  0  0  0  0  0  0  0
  -12.7500   12.6000    0.0000 C   0  0  0  0  0  0  0  0  0  0  0  0
   -6.3792   12.6000    0.0000 C   0  0  0  0  0  0  0  0  0  0  0  0
    3.1375    6.9792    0.0000 C   0  0  0  0  0  0  0  0  0  0  0  0
    6.3542    1.4458    0.0000 C   0  0  0  0  0  0  0  0  0  0  0  0
   -8.0875  -12.2292    0.0000 C   0  0  0  0  0  0  0  0  0  0  0  0
  -11.1875   15.3792    0.0000 C   0  0  0  0  0  0  0  0  0  0  0  0
   -7.9375   15.3792    0.0000 C   0  0  0  0  0  0  0  0  0  0  0  0
    6.3542    6.9792    0.0000 C   0  0  0  0  0  0  0  0  0  0  0  0
  -11.2375  -12.1875    0.0000 C   0  0  0  0  0  0  0  0  0  0  0  0
    7.9292    4.2042    0.0000 C   0  0  0  0  0  0  0  0  0  0  0  0
  2  6  1  0  0  0  0
  3  2  1  0  0  0  0
  4  1  1  0  0  0  0
  5 11  2  0  0  0  0
  6  9  1  0  0  0  0
  7  8  2  0  0  0  0
  7  5  1  0  0  0  0
  8  3  1  0  0  0  0
  9  4  1  0  0  0  0
 10  3  2  0  0  0  0
 11 10  1  0  0  0  0
 12  1  1  0  0  0  0
 13  1  2  0  0  0  0
 14  7  1  0  0  0  0
 15  2  2  0  0  0  0
 16 14  1  0  0  0  0
 17 14  2  0  0  0  0
 18 17  1  0  0  0  0
 19 16  2  0  0  0  0
 19 20  1  0  0  0  0
 20 18  2  0  0  0  0
 21  4  2  0  0  0  0
 22  9  2  0  0  0  0
 22 27  1  0  0  0  0
 23 10  1  0  0  0  0
 24 11  1  0  0  0  0
 25 20  1  0  0  0  0
 26 21  1  0  0  0  0
 27 26  2  0  0  0  0
 28 23  2  0  0  0  0
 29 25  1  0  0  0  0
 30 28  1  0  0  0  0
 30 24  2  0  0  0  0
M  CHG  2   1   1  12  -1
M  END
>  <ID>
5701086

>  <Supplier>
ChemBridge

>  <clogP>
5.850000000000000e+000

>  <RB>
3

>  <tPSA>
8.513000000000000e+001

>  <Hacc>
4

>  <Hdon>
1

>  <LogSw>
-7.483000000000001e+000

>  <Group>
1

>  <Core>
120

$$$$
7816048
 OpenBabel03312015312D

 25 28  0  0  0  0  0  0  0  0999 V2000
   -8.7917    2.9875    0.0000 C   0  0  0  0  0  0  0  0  0  0  0  0
   -6.9167   -0.2792    0.0000 C   0  0  0  0  0  0  0  0  0  0  0  0
   -6.9167    6.1667    0.0000 C   0  0  0  0  0  0  0  0  0  0  0  0
   -3.1708   -0.3375    0.0000 C   0  0  0  0  0  0  0  0  0  0  0  0
  -12.4792    2.3958    0.0000 N   0  0  0  0  0  0  0  0  0  0  0  0
   -9.4667   -3.1500    0.0000 N   0  0  0  0  0  0  0  0  0  0  0  0
   -3.1458    6.1917    0.0000 C   0  0  0  0  0  0  0  0  0  0  0  0
  -12.8792   -1.3000    0.0000 O   0  0  0  0  0  0  0  0  0  0  0  0
   -8.7042    9.4042    0.0000 N   0  0  0  0  0  0  0  0  0  0  0  0
    2.4375   -3.5417    0.0000 C   0  0  0  0  0  0  0  0  0  0  0  0
   -1.3500    2.8458    0.0000 C   0  0  0  0  0  0  0  0  0  0  0  0
   -1.3208   -3.5417    0.0000 N   0  0  0  0  0  0  0  0  0  0  0  0
    9.9875   -9.9917    0.0000 C   0  0  0  0  0  0  0  0  0  0  0  0
    4.2667   -0.2417    0.0000 S   0  0  0  0  0  0  0  0  0  0  0  0
    4.2917   -6.7417    0.0000 N   0  0  0  0  0  0  0  0  0  0  0  0
   13.6542  -10.5167    0.0000 O   0  0  0  0  0  0  0  0  0  0  0  0
    8.3542  -13.4500    0.0000 C   0  0  0  0  0  0  0  0  0  0  0  0
   14.3875  -14.2042    0.0000 C   0  0  0  0  0  0  0  0  0  0  0  0
   11.1375  -16.0000    0.0000 C   0  0  0  0  0  0  0  0  0  0  0  0
  -12.5042   16.0000    0.0000 O   0  0  0  0  0  0  0  0  0  0  0  0
    8.0625   -6.7417    0.0000 C   0  0  0  0  0  0  0  0  0  0  0  0
  -12.5417    9.4917    0.0000 C   0  0  0  0  0  0  0  0  0  0  0  0
   -6.8542   12.7000    0.0000 C   0  0  0  0  0  0  0  0  0  0  0  0
   -8.7542   15.9417    0.0000 C   0  0  0  0  0  0  0  0  0  0  0  0
  -14.3792   12.7292    0.0000 C   0  0  0  0  0  0  0  0  0  0  0  0
  2  1  1  0  0  0  0
  3  1  1  0  0  0  0
  4  2  1  0  0  0  0
  4 11  2  0  0  0  0
  5  1  2  0  0  0  0
  6  2  2  0  0  0  0
  7  3  2  0  0  0  0
  8  5  1  0  0  0  0
  8  6  1  0  0  0  0
  9  3  1  0  0  0  0
 10 12  1  0  0  0  0
 11  7  1  0  0  0  0
 12  4  1  0  0  0  0
 13 21  1  0  0  0  0
 14 10  2  0  0  0  0
 15 10  1  0  0  0  0
 16 13  1  0  0  0  0
 17 13  2  0  0  0  0
 18 16  1  0  0  0  0
 19 17  1  0  0  0  0
 19 18  2  0  0  0  0
 20 24  1  0  0  0  0
 20 25  1  0  0  0  0
 21 15  1  0  0  0  0
 22  9  1  0  0  0  0
 23  9  1  0  0  0  0
 24 23  1  0  0  0  0
 25 22  1  0  0  0  0
M  END
>  <ID>
7816048

>  <Supplier>
ChemBridge

>  <clogP>
2.370000000000000e+000

>  <RB>
4

>  <tPSA>
8.859000000000006e+001

>  <Hacc>
5

>  <Hdon>
2

>  <LogSw>
-2.835999999999999e+000

>  <Group>
1

$$$$
5701083
 OpenBabel03312015312D

 22 24  0  0  0  0  0  0  0  0999 V2000
   -5.6583    6.8167    0.0000 C   0  0  0  0  0  0  0  0  0  0  0  0
   -8.0917    7.0167    0.0000 C   0  0  0  0  0  0  0  0  0  0  0  0
   -4.6625    9.1667    0.0000 S   0  0  0  0  0  0  0  0  0  0  0  0
   -8.6792    9.3292    0.0000 C   0  0  0  0  0  0  0  0  0  0  0  0
   -4.3000    4.5667    0.0000 N   0  0  0  0  0  0  0  0  0  0  0  0
   -6.6500   10.7500    0.0000 C   0  0  0  0  0  0  0  0  0  0  0  0
   -1.7500    4.5667    0.0000 C   0  0  0  0  0  0  0  0  0  0  0  0
   -9.7042    4.9792    0.0000 C   0  0  0  0  0  0  0  0  0  0  0  0
   -0.4333    2.3500    0.0000 C   0  0  3  0  0  0  0  0  0  0  0  0
   -0.5625    6.8292    0.0000 O   0  0  0  0  0  0  0  0  0  0  0  0
   -8.9667    2.3500    0.0000 O   0  0  0  0  0  0  0  0  0  0  0  0
    2.2167    2.1958    0.0000 O   0  0  0  0  0  0  0  0  0  0  0  0
  -11.9542    5.5917    0.0000 N   0  0  0  0  0  0  0  0  0  0  0  0
  -11.2167    9.9417    0.0000 C   0  0  0  0  0  0  0  0  0  0  0  0
   -6.0042   13.2542    0.0000 C   0  0  0  0  0  0  0  0  0  0  0  0
    2.7875   -0.4000    0.0000 C   0  0  0  0  0  0  0  0  0  0  0  0
   -1.3125   -0.0292    0.0000 C   0  0  0  0  0  0  0  0  0  0  0  0
  -12.6292   12.1917    0.0000 C   0  0  0  0  0  0  0  0  0  0  0  0
   -7.4542   15.4500    0.0000 C   0  0  0  0  0  0  0  0  0  0  0  0
    0.6500   -1.6542    0.0000 C   0  0  0  0  0  0  0  0  0  0  0  0
   -9.9667   16.0000    0.0000 C   0  0  0  0  0  0  0  0  0  0  0  0
  -12.1875   14.5792    0.0000 C   0  0  0  0  0  0  0  0  0  0  0  0
  2  1  2  0  0  0  0
  3  1  1  0  0  0  0
  4  2  1  0  0  0  0
  5  1  1  0  0  0  0
  6  3  1  0  0  0  0
  6  4  2  0  0  0  0
  7  5  1  0  0  0  0
  8  2  1  0  0  0  0
  9  7  1  0  0  0  0
 10  7  2  0  0  0  0
 11  8  2  0  0  0  0
 12  9  1  0  0  0  0
 13  8  1  0  0  0  0
 14  4  1  0  0  0  0
 15  6  1  0  0  0  0
 16 12  1  0  0  0  0
 17  9  1  0  0  0  0
 18 14  1  0  0  0  0
 19 15  1  0  0  0  0
 20 17  1  0  0  0  0
 20 16  1  0  0  0  0
 21 19  1  0  0  0  0
 22 18  1  0  0  0  0
 22 21  1  0  0  0  0
M  END
>  <ID>
5701083

>  <Supplier>
ChemBridge

>  <clogP>
3.040000000000000e+000

>  <RB>
3

>  <tPSA>
8.141999999999999e+001

>  <Hacc>
3

>  <Hdon>
2

>  <LogSw>
-4.146999999999999e+000

>  <Group>
3

>  <Core>
097

$$$$
9031573
 OpenBabel03312015312D

 19 20  0  0  0  0  0  0  0  0999 V2000
    4.5750    2.9958    0.0000 N   0  0  0  0  0  0  0  0  0  0  0  0
    5.2250    3.3708    0.0000 C   0  0  0  0  0  0  0  0  0  0  0  0
    5.2250    4.1042    0.0000 N   0  0  0  0  0  0  0  0  0  0  0  0
    3.9250    3.3708    0.0000 C   0  0  0  0  0  0  0  0  0  0  0  0
    3.9250    4.1042    0.0000 C   0  0  0  0  0  0  0  0  0  0  0  0
    4.5750    4.4792    0.0000 C   0  0  0  0  0  0  0  0  0  0  0  0
    7.8167    3.3708    0.0000 N   0  0  0  0  0  0  0  0  0  0  0  0
    7.1667    2.9958    0.0000 C   0  0  0  0  0  0  0  0  0  0  0  0
    5.8750    2.9958    0.0000 S   0  0  0  0  0  0  0  0  0  0  0  0
    6.5167    3.3708    0.0000 C   0  0  0  0  0  0  0  0  0  0  0  0
    4.5750    5.2292    0.0000 O   0  0  0  0  0  0  0  0  0  0  0  0
    7.1667    2.2458    0.0000 O   0  0  0  0  0  0  0  0  0  0  0  0
    3.2750    2.9958    0.0000 N   0  0  0  0  0  0  0  0  0  0  0  0
    8.4417    2.9458    0.0000 C   0  0  0  0  0  0  0  0  0  0  0  0
    7.7667    4.1042    0.0000 C   0  0  0  0  0  0  0  0  0  0  0  0
    8.3167    4.6167    0.0000 C   0  0  0  0  0  0  0  0  0  0  0  0
    9.1542    3.1708    0.0000 C   0  0  0  0  0  0  0  0  0  0  0  0
    9.4292    3.8625    0.0000 C   0  0  0  0  0  0  0  0  0  0  0  0
    9.0542    4.5042    0.0000 C   0  0  0  0  0  0  0  0  0  0  0  0
  2  1  2  0  0  0  0
  3  2  1  0  0  0  0
  4  1  1  0  0  0  0
  5  4  2  0  0  0  0
  6  5  1  0  0  0  0
  6  3  1  0  0  0  0
  7  8  1  0  0  0  0
  8 10  1  0  0  0  0
  9  2  1  0  0  0  0
 10  9  1  0  0  0  0
 11  6  2  0  0  0  0
 12  8  2  0  0  0  0
 13  4  1  0  0  0  0
 14  7  1  0  0  0  0
 15  7  1  0  0  0  0
 16 15  1  0  0  0  0
 17 14  1  0  0  0  0
 18 17  1  0  0  0  0
 18 19  1  0  0  0  0
 19 16  1  0  0  0  0
M  END
>  <ID>
9031573

>  <Supplier>
ChemBridge

>  <clogP>
1.920000000000000e-001

>  <RB>
3

>  <tPSA>
9.208000000000000e+001

>  <Hacc>
3

>  <Hdon>
2

>  <LogSw>
-2.734000000000000e+000

>  <Group>
2

>  <Core>
016

$$$$
6443622
 OpenBabel03312015312D

 23 26  0  0  0  0  0  0  0  0999 V2000
    5.4542   -2.2500    0.0000 N   0  3  0  0  0  0  0  0  0  0  0  0
    5.4542   -1.4167    0.0000 C   0  0  0  0  0  0  0  0  0  0  0  0
    4.7500   -2.6625    0.0000 C   0  0  0  0  0  0  0  0  0  0  0  0
    4.7500   -1.0000    0.0000 N   0  0  0  0  0  0  0  0  0  0  0  0
    4.0292   -2.2500    0.0000 C   0  0  0  0  0  0  0  0  0  0  0  0
    4.0292   -1.4167    0.0000 C   0  0  0  0  0  0  0  0  0  0  0  0
    6.1792   -2.6625    0.0000 C   0  0  0  0  0  0  0  0  0  0  0  0
    6.1792   -1.0000    0.0000 C   0  0  0  0  0  0  0  0  0  0  0  0
    4.7500   -3.4875    0.0000 C   0  0  0  0  0  0  0  0  0  0  0  0
    3.3167   -1.0000    0.0000 C   0  0  0  0  0  0  0  0  0  0  0  0
    6.8917   -2.2500    0.0000 C   0  0  0  0  0  0  0  0  0  0  0  0
    6.8917   -1.4167    0.0000 C   0  0  0  0  0  0  0  0  0  0  0  0
    4.0417   -3.9292    0.0000 C   0  0  0  0  0  0  0  0  0  0  0  0
    5.4542   -3.8667    0.0000 C   0  0  0  0  0  0  0  0  0  0  0  0
    2.6292   -1.4250    0.0000 C   0  0  0  0  0  0  0  0  0  0  0  0
    3.2917   -0.1542    0.0000 C   0  0  0  0  0  0  0  0  0  0  0  0
    7.6042   -1.0000    0.0000 C   0  0  0  0  0  0  0  0  0  0  0  0
    5.4875   -4.6917    0.0000 C   0  0  0  0  0  0  0  0  0  0  0  0
    1.8792   -1.0417    0.0000 C   0  0  0  0  0  0  0  0  0  0  0  0
    2.5625    0.2208    0.0000 C   0  0  0  0  0  0  0  0  0  0  0  0
    4.0750   -4.7292    0.0000 C   0  0  0  0  0  0  0  0  0  0  0  0
    1.8667   -0.2167    0.0000 C   0  0  0  0  0  0  0  0  0  0  0  0
    4.7917   -5.1167    0.0000 C   0  0  0  0  0  0  0  0  0  0  0  0
  2  1  2  0  0  0  0
  3  1  1  0  0  0  0
  4  2  1  0  0  0  0
  5  3  2  0  0  0  0
  6  5  1  0  0  0  0
  6  4  2  0  0  0  0
  7  1  1  0  0  0  0
  8  2  1  0  0  0  0
  8 12  2  0  0  0  0
  9  3  1  0  0  0  0
 10  6  1  0  0  0  0
 11  7  2  0  0  0  0
 12 11  1  0  0  0  0
 13  9  2  0  0  0  0
 14  9  1  0  0  0  0
 15 10  1  0  0  0  0
 16 10  2  0  0  0  0
 17 12  1  0  0  0  0
 18 14  2  0  0  0  0
 19 15  2  0  0  0  0
 19 22  1  0  0  0  0
 20 16  1  0  0  0  0
 21 13  1  0  0  0  0
 21 23  2  0  0  0  0
 22 20  2  0  0  0  0
 23 18  1  0  0  0  0
M  CHG  1   1   1
M  END
>  <ID>
6443622

>  <Supplier>
ChemBridge

>  <clogP>
4.570000000000000e+000

>  <RB>
2

>  <tPSA>
8.527000000000000e+001

>  <Hacc>
6

>  <Hdon>
0

>  <LogSw>
-5.272000000000000e+000

>  <Group>
3

$$$$
9145827
 OpenBabel03312015312D

 28 31  0  0  0  0  0  0  0  0999 V2000
    3.7500    2.5000    0.0000 C   0  0  0  0  0  0  0  0  0  0  0  0
    4.4000    2.1250    0.0000 N   0  0  0  0  0  0  0  0  0  0  0  0
    3.1917    2.0000    0.0000 C   0  0  0  0  0  0  0  0  0  0  0  0
    4.2417    1.3958    0.0000 N   0  0  0  0  0  0  0  0  0  0  0  0
    5.0500    2.5000    0.0000 C   0  0  0  0  0  0  0  0  0  0  0  0
    3.5000    1.3125    0.0000 C   0  0  0  0  0  0  0  0  0  0  0  0
    3.7500    3.2500    0.0000 N   0  0  0  0  0  0  0  0  0  0  0  0
    5.0500    3.2500    0.0000 C   0  0  0  0  0  0  0  0  0  0  0  0
    2.4542    2.1583    0.0000 C   0  0  0  0  0  0  0  0  0  0  0  0
    4.4000    3.6250    0.0000 C   0  0  0  0  0  0  0  0  0  0  0  0
    7.6417    2.5000    0.0000 N   0  0  0  0  0  0  0  0  0  0  0  0
    5.7000    2.1250    0.0000 N   0  0  0  0  0  0  0  0  0  0  0  0
    2.2292    2.8708    0.0000 C   0  0  0  0  0  0  0  0  0  0  0  0
    8.9417    3.2500    0.0000 O   0  0  0  0  0  0  0  0  0  0  0  0
    3.1250    0.6625    0.0000 C   0  0  0  0  0  0  0  0  0  0  0  0
    6.3500    2.5000    0.0000 C   0  0  0  0  0  0  0  0  0  0  0  0
    2.7292    3.4250    0.0000 O   0  0  0  0  0  0  0  0  0  0  0  0
    7.0000    2.1250    0.0000 C   0  0  0  0  0  0  0  0  0  0  0  0
    1.9542    1.5958    0.0000 C   0  0  0  0  0  0  0  0  0  0  0  0
    7.6417    3.2500    0.0000 C   0  0  0  0  0  0  0  0  0  0  0  0
    8.2917    2.1250    0.0000 C   0  0  0  0  0  0  0  0  0  0  0  0
    4.4000    4.3667    0.0000 C   0  0  0  0  0  0  0  0  0  0  0  0
    8.2917    3.6250    0.0000 C   0  0  0  0  0  0  0  0  0  0  0  0
    8.9417    2.5000    0.0000 C   0  0  0  0  0  0  0  0  0  0  0  0
    1.4917    3.0250    0.0000 C   0  0  0  0  0  0  0  0  0  0  0  0
    2.4917    4.1292    0.0000 C   0  0  0  0  0  0  0  0  0  0  0  0
    1.2250    1.7583    0.0000 C   0  0  0  0  0  0  0  0  0  0  0  0
    0.9917    2.4708    0.0000 C   0  0  0  0  0  0  0  0  0  0  0  0
  2  1  1  0  0  0  0
  3  1  2  0  0  0  0
  4  2  1  0  0  0  0
  4  6  2  0  0  0  0
  5  2  1  0  0  0  0
  6  3  1  0  0  0  0
  7  1  1  0  0  0  0
  8 10  1  0  0  0  0
  8  5  2  0  0  0  0
  9  3  1  0  0  0  0
 10  7  2  0  0  0  0
 11 18  1  0  0  0  0
 12  5  1  0  0  0  0
 13  9  2  0  0  0  0
 14 24  1  0  0  0  0
 15  6  1  0  0  0  0
 16 12  1  0  0  0  0
 17 13  1  0  0  0  0
 18 16  1  0  0  0  0
 19  9  1  0  0  0  0
 20 11  1  0  0  0  0
 21 11  1  0  0  0  0
 22 10  1  0  0  0  0
 23 20  1  0  0  0  0
 23 14  1  0  0  0  0
 24 21  1  0  0  0  0
 25 13  1  0  0  0  0
 25 28  2  0  0  0  0
 26 17  1  0  0  0  0
 27 19  2  0  0  0  0
 28 27  1  0  0  0  0
M  END
>  <ID>
9145827

>  <Supplier>
ChemBridge

>  <clogP>
3.409000000000000e+000

>  <RB>
5

>  <tPSA>
6.392000000000000e+001

>  <Hacc>
5

>  <Hdon>
1

>  <LogSw>
-3.884000000000000e+000

>  <Group>
2

>  <Core>
353

$$$$
6443624
 OpenBabel03312015312D

 28 30  0  0  0  0  0  0  0  0999 V2000
    5.7417   -4.4542    0.0000 S   0  0  0  0  0  0  0  0  0  0  0  0
    5.7417   -3.6292    0.0000 N   0  0  0  0  0  0  0  0  0  0  0  0
    6.4542   -3.2167    0.0000 C   0  0  0  0  0  0  0  0  0  0  0  0
    5.0250   -3.2167    0.0000 C   0  0  0  0  0  0  0  0  0  0  0  0
    7.1667   -3.6292    0.0000 C   0  0  0  0  0  0  0  0  0  0  0  0
    7.8792   -3.2167    0.0000 N   0  0  0  0  0  0  0  0  0  0  0  0
    5.0292   -2.3875    0.0000 C   0  0  0  0  0  0  0  0  0  0  0  0
    4.3125   -3.6417    0.0000 C   0  0  0  0  0  0  0  0  0  0  0  0
    6.3250   -5.0375    0.0000 O   0  0  0  0  0  0  0  0  0  0  0  0
    6.5667   -4.4542    0.0000 O   0  0  0  0  0  0  0  0  0  0  0  0
    5.0250   -4.8625    0.0000 C   0  0  0  0  0  0  0  0  0  0  0  0
    3.5917   -3.2167    0.0000 C   0  0  0  0  0  0  0  0  0  0  0  0
    4.3167   -1.9750    0.0000 C   0  0  0  0  0  0  0  0  0  0  0  0
    7.1667   -4.4542    0.0000 O   0  0  0  0  0  0  0  0  0  0  0  0
    3.5917   -2.3875    0.0000 C   0  0  0  0  0  0  0  0  0  0  0  0
    8.5917   -3.6167    0.0000 C   0  0  0  0  0  0  0  0  0  0  0  0
    7.8667   -2.3917    0.0000 C   0  0  0  0  0  0  0  0  0  0  0  0
    2.8750   -3.6250    0.0000 Cl  0  0  0  0  0  0  0  0  0  0  0  0
    4.3167   -1.1500    0.0000 Cl  0  0  0  0  0  0  0  0  0  0  0  0
    8.5792   -1.9667    0.0000 C   0  0  0  0  0  0  0  0  0  0  0  0
    9.3042   -3.2042    0.0000 C   0  0  0  0  0  0  0  0  0  0  0  0
    9.3000   -2.3792    0.0000 C   0  0  0  0  0  0  0  0  0  0  0  0
    4.3167   -4.4375    0.0000 C   0  0  0  0  0  0  0  0  0  0  0  0
    5.0167   -5.6792    0.0000 C   0  0  0  0  0  0  0  0  0  0  0  0
   10.0125   -1.9667    0.0000 C   0  0  0  0  0  0  0  0  0  0  0  0
    3.6000   -4.8417    0.0000 C   0  0  0  0  0  0  0  0  0  0  0  0
    4.3042   -6.0792    0.0000 C   0  0  0  0  0  0  0  0  0  0  0  0
    3.5917   -5.6667    0.0000 C   0  0  0  0  0  0  0  0  0  0  0  0
  2  1  1  0  0  0  0
  3  2  1  0  0  0  0
  4  2  1  0  0  0  0
  5  3  1  0  0  0  0
  6  5  1  0  0  0  0
  7  4  2  0  0  0  0
  8  4  1  0  0  0  0
  9  1  2  0  0  0  0
 10  1  2  0  0  0  0
 11  1  1  0  0  0  0
 12  8  2  0  0  0  0
 13  7  1  0  0  0  0
 13 15  2  0  0  0  0
 14  5  2  0  0  0  0
 15 12  1  0  0  0  0
 16  6  1  0  0  0  0
 17  6  1  0  0  0  0
 18 12  1  0  0  0  0
 19 13  1  0  0  0  0
 20 17  1  0  0  0  0
 21 16  1  0  0  0  0
 22 20  1  0  0  0  0
 22 21  1  0  0  0  0
 23 11  2  0  0  0  0
 24 11  1  0  0  0  0
 25 22  1  0  0  0  0
 26 23  1  0  0  0  0
 27 24  2  0  0  0  0
 28 27  1  0  0  0  0
 28 26  2  0  0  0  0
M  END
>  <ID>
6443624

>  <Supplier>
ChemBridge

>  <clogP>
5.400000000000000e+000

>  <RB>
4

>  <tPSA>
5.769000000000000e+001

>  <Hacc>
3

>  <Hdon>
0

>  <LogSw>
-7.029000000000000e+000

>  <Group>
1

>  <Core>
084

$$$$
7960987
 OpenBabel03312015312D

 34 38  0  0  0  0  0  0  0  0999 V2000
    2.4167    1.6833    0.0000 S   0  0  0  0  0  0  0  0  0  0  0  0
    7.5542    0.5458    0.0000 S   0  0  0  0  0  0  0  0  0  0  0  0
    1.7667    2.0583    0.0000 C   0  0  0  0  0  0  0  0  0  0  0  0
    4.9292    2.3500    0.0000 C   0  0  0  0  0  0  0  0  0  0  0  0
    5.8667    1.5875    0.0000 C   0  0  0  0  0  0  0  0  0  0  0  0
    5.5542    2.7583    0.0000 O   0  0  0  0  0  0  0  0  0  0  0  0
    7.0792    1.1208    0.0000 C   0  0  0  0  0  0  0  0  0  0  0  0
    5.1167    1.6333    0.0000 C   0  0  0  0  0  0  0  0  0  0  0  0
    8.2417    0.8458    0.0000 N   0  0  0  0  0  0  0  0  0  0  0  0
    6.1417    2.2875    0.0000 C   0  0  0  0  0  0  0  0  0  0  0  0
    2.9500    2.2083    0.0000 N   0  0  0  0  0  0  0  0  0  0  0  0
    6.3417    1.0083    0.0000 C   0  0  0  0  0  0  0  0  0  0  0  0
    1.7667    2.8083    0.0000 C   0  0  0  0  0  0  0  0  0  0  0  0
    4.2042    2.5458    0.0000 C   0  0  0  0  0  0  0  0  0  0  0  0
    1.9875    1.0708    0.0000 O   0  0  0  0  0  0  0  0  0  0  0  0
    2.9917    1.1958    0.0000 O   0  0  0  0  0  0  0  0  0  0  0  0
    6.9292    0.1208    0.0000 O   0  0  0  0  0  0  0  0  0  0  0  0
    7.9167   -0.1167    0.0000 O   0  0  0  0  0  0  0  0  0  0  0  0
    1.1167    1.6833    0.0000 C   0  0  0  0  0  0  0  0  0  0  0  0
    4.5917    1.0958    0.0000 C   0  0  0  0  0  0  0  0  0  0  0  0
    3.6750    2.0208    0.0000 C   0  0  0  0  0  0  0  0  0  0  0  0
    7.3542    1.8208    0.0000 C   0  0  0  0  0  0  0  0  0  0  0  0
    6.8792    2.4083    0.0000 C   0  0  0  0  0  0  0  0  0  0  0  0
    0.4667    2.0583    0.0000 C   0  0  0  0  0  0  0  0  0  0  0  0
    1.1167    3.1833    0.0000 C   0  0  0  0  0  0  0  0  0  0  0  0
    3.8667    1.2958    0.0000 C   0  0  0  0  0  0  0  0  0  0  0  0
    0.4667    2.8083    0.0000 C   0  0  0  0  0  0  0  0  0  0  0  0
    1.1167    3.9333    0.0000 F   0  0  0  0  0  0  0  0  0  0  0  0
    1.1167    0.9333    0.0000 O   0  0  0  0  0  0  0  0  0  0  0  0
    8.8917    0.4708    0.0000 C   0  0  0  0  0  0  0  0  0  0  0  0
    8.3917    1.5833    0.0000 C   0  0  0  0  0  0  0  0  0  0  0  0
    0.4667    0.5583    0.0000 C   0  0  0  0  0  0  0  0  0  0  0  0
    9.4500    0.9708    0.0000 C   0  0  0  0  0  0  0  0  0  0  0  0
    9.1417    1.6583    0.0000 C   0  0  0  0  0  0  0  0  0  0  0  0
  2  7  1  0  0  0  0
  3  1  1  0  0  0  0
  4 14  1  0  0  0  0
  5  8  1  0  0  0  0
  5 10  2  0  0  0  0
  6  4  1  0  0  0  0
  7 12  2  0  0  0  0
  7 22  1  0  0  0  0
  8 20  1  0  0  0  0
  8  4  2  0  0  0  0
  9  2  1  0  0  0  0
 10  6  1  0  0  0  0
 11  1  1  0  0  0  0
 12  5  1  0  0  0  0
 13  3  1  0  0  0  0
 14 21  2  0  0  0  0
 15  1  2  0  0  0  0
 16  1  2  0  0  0  0
 17  2  2  0  0  0  0
 18  2  2  0  0  0  0
 19  3  2  0  0  0  0
 20 26  2  0  0  0  0
 21 11  1  0  0  0  0
 22 23  2  0  0  0  0
 23 10  1  0  0  0  0
 24 19  1  0  0  0  0
 25 13  2  0  0  0  0
 26 21  1  0  0  0  0
 27 24  2  0  0  0  0
 27 25  1  0  0  0  0
 28 25  1  0  0  0  0
 29 19  1  0  0  0  0
 30  9  1  0  0  0  0
 31  9  1  0  0  0  0
 32 29  1  0  0  0  0
 33 30  1  0  0  0  0
 34 31  1  0  0  0  0
 34 33  1  0  0  0  0
M  END
>  <ID>
7960987

>  <Supplier>
ChemBridge

>  <clogP>
4.502000000000000e+000

>  <RB>
3

>  <tPSA>
1.059200000000000e+002

>  <Hacc>
7

>  <Hdon>
1

>  <LogSw>
-7.832000000000000e+000

>  <Group>
1

>  <Core>
516

$$$$
9031574
 OpenBabel03312015312D

 18 19  0  0  0  0  0  0  0  0999 V2000
    3.2042    2.5000    0.0000 C   0  0  0  0  0  0  0  0  0  0  0  0
    3.5792    1.8500    0.0000 N   0  0  0  0  0  0  0  0  0  0  0  0
    4.3292    1.8500    0.0000 C   0  0  0  0  0  0  0  0  0  0  0  0
    2.4542    2.5000    0.0000 C   0  0  0  0  0  0  0  0  0  0  0  0
    4.7042    1.2000    0.0000 C   0  0  0  0  0  0  0  0  0  0  0  0
    5.4542    1.2000    0.0000 C   0  0  0  0  0  0  0  0  0  0  0  0
    3.5792    3.1500    0.0000 O   0  0  0  0  0  0  0  0  0  0  0  0
    2.0792    3.1500    0.0000 C   0  0  0  0  0  0  0  0  0  0  0  0
    4.7042    2.5000    0.0000 C   0  0  0  0  0  0  0  0  0  0  0  0
    5.8292    1.8500    0.0000 C   0  0  0  0  0  0  0  0  0  0  0  0
    4.3292    0.5500    0.0000 O   0  0  0  0  0  0  0  0  0  0  0  0
    6.5792    1.8500    0.0000 N   0  0  0  0  0  0  0  0  0  0  0  0
    5.4542    2.5000    0.0000 C   0  0  0  0  0  0  0  0  0  0  0  0
    2.0792    1.8500    0.0000 C   0  0  0  0  0  0  0  0  0  0  0  0
    2.4542    3.8000    0.0000 C   0  0  0  0  0  0  0  0  0  0  0  0
    1.3292    3.1500    0.0000 C   0  0  0  0  0  0  0  0  0  0  0  0
    1.3292    1.8500    0.0000 C   0  0  0  0  0  0  0  0  0  0  0  0
    0.9542    2.5000    0.0000 C   0  0  0  0  0  0  0  0  0  0  0  0
  2  1  1  0  0  0  0
  3  2  1  0  0  0  0
  4  1  1  0  0  0  0
  5  3  1  0  0  0  0
  6  5  2  0  0  0  0
  7  1  2  0  0  0  0
  8  4  2  0  0  0  0
  9  3  2  0  0  0  0
 10 13  2  0  0  0  0
 10  6  1  0  0  0  0
 11  5  1  0  0  0  0
 12 10  1  0  0  0  0
 13  9  1  0  0  0  0
 14  4  1  0  0  0  0
 15  8  1  0  0  0  0
 16  8  1  0  0  0  0
 17 14  2  0  0  0  0
 18 17  1  0  0  0  0
 18 16  2  0  0  0  0
M  END
>  <ID>
9031574

>  <Supplier>
ChemBridge

>  <clogP>
1.145000000000000e+000

>  <RB>
2

>  <tPSA>
7.534999999999998e+001

>  <Hacc>
2

>  <Hdon>
3

>  <LogSw>
-1.946000000000000e+000

>  <Group>
2

>  <Core>
511

$$$$
9031575
 OpenBabel03312015312D

 25 27  0  0  0  0  0  0  0  0999 V2000
    5.0792    2.5708    0.0000 C   0  0  0  0  0  0  0  0  0  0  0  0
    4.4750    1.5208    0.0000 N   0  0  0  0  0  0  0  0  0  0  0  0
    4.3917    2.2708    0.0000 C   0  0  0  0  0  0  0  0  0  0  0  0
    5.5792    2.0208    0.0000 C   0  0  0  0  0  0  0  0  0  0  0  0
    5.2375    3.3083    0.0000 C   0  0  0  0  0  0  0  0  0  0  0  0
    5.2042    1.3625    0.0000 C   0  0  0  0  0  0  0  0  0  0  0  0
    4.6792    3.8083    0.0000 C   0  0  0  0  0  0  0  0  0  0  0  0
    3.2042    1.2458    0.0000 C   0  0  0  0  0  0  0  0  0  0  0  0
    3.9167    1.0208    0.0000 C   0  0  0  0  0  0  0  0  0  0  0  0
    2.6417    0.7458    0.0000 N   0  0  0  0  0  0  0  0  0  0  0  0
    5.9500    3.5333    0.0000 O   0  0  0  0  0  0  0  0  0  0  0  0
    4.8292    4.5292    0.0000 O   0  0  0  0  0  0  0  0  0  0  0  0
    3.0417    1.9833    0.0000 O   0  0  0  0  0  0  0  0  0  0  0  0
    3.9667    3.5708    0.0000 N   0  0  0  0  0  0  0  0  0  0  0  0
    1.9292    0.9833    0.0000 C   0  0  0  0  0  0  0  0  0  0  0  0
    0.5042    1.4458    0.0000 C   0  0  0  0  0  0  0  0  0  0  0  0
   -0.2083    1.6708    0.0000 F   0  0  0  0  0  0  0  0  0  0  0  0
    6.3292    2.0208    0.0000 C   0  0  0  0  0  0  0  0  0  0  0  0
    1.3750    0.4750    0.0000 C   0  0  0  0  0  0  0  0  0  0  0  0
    1.7750    1.7125    0.0000 C   0  0  0  0  0  0  0  0  0  0  0  0
    1.0625    1.9458    0.0000 C   0  0  0  0  0  0  0  0  0  0  0  0
    0.6625    0.7083    0.0000 C   0  0  0  0  0  0  0  0  0  0  0  0
    5.5792    0.7125    0.0000 C   0  0  0  0  0  0  0  0  0  0  0  0
    6.7042    1.3625    0.0000 C   0  0  0  0  0  0  0  0  0  0  0  0
    6.3292    0.7125    0.0000 C   0  0  0  0  0  0  0  0  0  0  0  0
  2  3  1  0  0  0  0
  2  6  1  0  0  0  0
  3  1  2  0  0  0  0
  4  1  1  0  0  0  0
  5  1  1  0  0  0  0
  6  4  2  0  0  0  0
  7  5  1  0  0  0  0
  8  9  1  0  0  0  0
  9  2  1  0  0  0  0
 10  8  1  0  0  0  0
 11  5  2  0  0  0  0
 12  7  2  0  0  0  0
 13  8  2  0  0  0  0
 14  7  1  0  0  0  0
 15 10  1  0  0  0  0
 16 21  1  0  0  0  0
 17 16  1  0  0  0  0
 18  4  1  0  0  0  0
 19 15  2  0  0  0  0
 20 15  1  0  0  0  0
 21 20  2  0  0  0  0
 22 19  1  0  0  0  0
 22 16  2  0  0  0  0
 23  6  1  0  0  0  0
 23 25  2  0  0  0  0
 24 18  2  0  0  0  0
 25 24  1  0  0  0  0
M  END
>  <ID>
9031575

>  <Supplier>
ChemBridge

>  <clogP>
9.060000000000000e-001

>  <RB>
5

>  <tPSA>
9.419000000000000e+001

>  <Hacc>
3

>  <Hdon>
2

>  <LogSw>
-2.448000000000000e+000

>  <Group>
3

>  <Core>
503

$$$$
6578930
 OpenBabel03312015312D

 27 29  0  0  0  0  0  0  0  0999 V2000
    5.5917    1.1708    0.0000 C   0  0  0  0  0  0  0  0  0  0  0  0
    6.2417    1.5458    0.0000 N   0  0  0  0  0  0  0  0  0  0  0  0
    3.6417    2.2958    0.0000 N   0  0  0  0  0  0  0  0  0  0  0  0
    4.9417    1.5458    0.0000 C   0  0  0  0  0  0  0  0  0  0  0  0
    6.8917    1.1708    0.0000 C   0  0  0  0  0  0  0  0  0  0  0  0
    5.5917    0.4208    0.0000 O   0  0  0  0  0  0  0  0  0  0  0  0
    2.9917    2.6708    0.0000 C   0  0  0  0  0  0  0  0  0  0  0  0
    4.2917    1.1708    0.0000 C   0  0  0  0  0  0  0  0  0  0  0  0
    4.9417    2.2958    0.0000 C   0  0  0  0  0  0  0  0  0  0  0  0
    4.2917    2.6708    0.0000 C   0  0  0  0  0  0  0  0  0  0  0  0
    3.6417    1.5458    0.0000 C   0  0  0  0  0  0  0  0  0  0  0  0
    2.3417    2.2958    0.0000 C   0  0  0  0  0  0  0  0  0  0  0  0
    7.5417    1.5458    0.0000 C   0  0  0  0  0  0  0  0  0  0  0  0
    1.0417    1.5458    0.0000 C   0  0  0  0  0  0  0  0  0  0  0  0
    2.3417    1.5458    0.0000 C   0  0  0  0  0  0  0  0  0  0  0  0
    1.6917    2.6708    0.0000 C   0  0  0  0  0  0  0  0  0  0  0  0
    1.0417    2.2958    0.0000 C   0  0  0  0  0  0  0  0  0  0  0  0
    1.6917    1.1708    0.0000 C   0  0  0  0  0  0  0  0  0  0  0  0
    6.2417    2.2958    0.0000 C   0  0  0  0  0  0  0  0  0  0  0  0
    6.8917    3.4208    0.0000 O   0  0  0  0  0  0  0  0  0  0  0  0
    6.8917    2.6708    0.0000 C   0  0  0  0  0  0  0  0  0  0  0  0
    0.3917    1.1708    0.0000 C   0  0  0  0  0  0  0  0  0  0  0  0
    8.1917    1.1708    0.0000 C   0  0  0  0  0  0  0  0  0  0  0  0
    7.5417    2.2958    0.0000 C   0  0  0  0  0  0  0  0  0  0  0  0
    8.1917    2.6708    0.0000 C   0  0  0  0  0  0  0  0  0  0  0  0
    8.8375    1.5458    0.0000 C   0  0  0  0  0  0  0  0  0  0  0  0
    8.8375    2.2958    0.0000 C   0  0  0  0  0  0  0  0  0  0  0  0
  2  1  1  0  0  0  0
  3 10  1  0  0  0  0
  4  1  1  0  0  0  0
  5  2  1  0  0  0  0
  6  1  2  0  0  0  0
  7  3  1  0  0  0  0
  8  4  1  0  0  0  0
  9  4  1  0  0  0  0
 10  9  1  0  0  0  0
 11  8  1  0  0  0  0
 11  3  1  0  0  0  0
 12  7  1  0  0  0  0
 13  5  1  0  0  0  0
 14 17  1  0  0  0  0
 15 12  2  0  0  0  0
 16 12  1  0  0  0  0
 17 16  2  0  0  0  0
 18 15  1  0  0  0  0
 18 14  2  0  0  0  0
 19  2  1  0  0  0  0
 20 21  1  0  0  0  0
 21 19  1  0  0  0  0
 22 14  1  0  0  0  0
 23 13  1  0  0  0  0
 24 13  2  0  0  0  0
 25 24  1  0  0  0  0
 26 23  2  0  0  0  0
 26 27  1  0  0  0  0
 27 25  2  0  0  0  0
M  END
>  <ID>
6578930

>  <Supplier>
ChemBridge

>  <clogP>
5.000000000000000e-001

>  <RB>
7

>  <tPSA>
1.183800000000000e+002

>  <Hacc>
7

>  <Hdon>
3

>  <LogSw>
-2.299000000000000e+000

>  <Group>
3

>  <Core>
052

$$$$
6578933
 OpenBabel03312015312D

 27 29  0  0  0  0  0  0  0  0999 V2000
    0.4292    1.0625    0.0000 C   0  0  0  0  0  0  0  0  0  0  0  0
    1.1417    1.4750    0.0000 N   0  0  0  0  0  0  0  0  0  0  0  0
    0.4292   -1.4125    0.0000 N   0  0  0  0  0  0  0  0  0  0  0  0
    0.4292    0.2375    0.0000 C   0  0  0  0  0  0  0  0  0  0  0  0
    1.1417    2.2583    0.0000 C   0  0  0  0  0  0  0  0  0  0  0  0
   -0.2833    1.4750    0.0000 O   0  0  0  0  0  0  0  0  0  0  0  0
    0.4292   -2.2375    0.0000 C   0  0  0  0  0  0  0  0  0  0  0  0
   -0.2833   -0.1792    0.0000 C   0  0  0  0  0  0  0  0  0  0  0  0
    1.1417   -0.1792    0.0000 C   0  0  0  0  0  0  0  0  0  0  0  0
    1.1417   -1.0042    0.0000 C   0  0  0  0  0  0  0  0  0  0  0  0
   -0.2833   -1.0042    0.0000 C   0  0  0  0  0  0  0  0  0  0  0  0
   -0.3750   -2.7000    0.0000 C   0  0  0  0  0  0  0  0  0  0  0  0
   -2.0083   -3.6417    0.0000 C   0  0  0  0  0  0  0  0  0  0  0  0
    1.8250    2.6625    0.0000 C   0  0  0  0  0  0  0  0  0  0  0  0
   -2.8125   -4.1042    0.0000 F   0  0  0  0  0  0  0  0  0  0  0  0
   -2.0083   -2.7042    0.0000 C   0  0  0  0  0  0  0  0  0  0  0  0
   -1.1958   -4.1042    0.0000 C   0  0  0  0  0  0  0  0  0  0  0  0
   -0.3833   -3.6292    0.0000 C   0  0  0  0  0  0  0  0  0  0  0  0
   -1.1875   -2.2292    0.0000 C   0  0  0  0  0  0  0  0  0  0  0  0
    1.8292    1.0833    0.0000 C   0  0  0  0  0  0  0  0  0  0  0  0
    3.1917    1.0833    0.0000 O   0  0  0  0  0  0  0  0  0  0  0  0
    2.5042    1.4833    0.0000 C   0  0  0  0  0  0  0  0  0  0  0  0
    1.8167    3.4458    0.0000 C   0  0  0  0  0  0  0  0  0  0  0  0
    2.5042    2.2708    0.0000 C   0  0  0  0  0  0  0  0  0  0  0  0
    3.1917    2.6708    0.0000 C   0  0  0  0  0  0  0  0  0  0  0  0
    2.5000    3.8583    0.0000 C   0  0  0  0  0  0  0  0  0  0  0  0
    3.1875    3.4583    0.0000 C   0  0  0  0  0  0  0  0  0  0  0  0
  2  1  1  0  0  0  0
  3 10  1  0  0  0  0
  4  1  1  0  0  0  0
  5  2  1  0  0  0  0
  6  1  2  0  0  0  0
  7  3  1  0  0  0  0
  8  4  1  0  0  0  0
  9  4  1  0  0  0  0
 10  9  1  0  0  0  0
 11  8  1  0  0  0  0
 11  3  1  0  0  0  0
 12  7  1  0  0  0  0
 13 16  1  0  0  0  0
 14  5  1  0  0  0  0
 15 13  1  0  0  0  0
 16 19  2  0  0  0  0
 17 18  1  0  0  0  0
 17 13  2  0  0  0  0
 18 12  2  0  0  0  0
 19 12  1  0  0  0  0
 20  2  1  0  0  0  0
 21 22  1  0  0  0  0
 22 20  1  0  0  0  0
 23 14  1  0  0  0  0
 24 14  2  0  0  0  0
 25 24  1  0  0  0  0
 26 23  2  0  0  0  0
 26 27  1  0  0  0  0
 27 25  2  0  0  0  0
M  END
>  <ID>
6578933

>  <Supplier>
ChemBridge

>  <clogP>
2.700000000000000e+000

>  <RB>
7

>  <tPSA>
4.378000000000000e+001

>  <Hacc>
3

>  <Hdon>
1

>  <LogSw>
-4.207000000000000e+000

>  <Group>
3

>  <Core>
052

$$$$
6578932
 OpenBabel03312015312D

 27 29  0  0  0  0  0  0  0  0999 V2000
    3.7542    2.3375    0.0000 C   0  0  0  0  0  0  0  0  0  0  0  0
    3.1042    1.9625    0.0000 N   0  0  0  0  0  0  0  0  0  0  0  0
    5.7042    1.2125    0.0000 N   0  0  0  0  0  0  0  0  0  0  0  0
    7.0042    1.2125    0.0000 C   0  0  0  0  0  0  0  0  0  0  0  0
    6.3542    0.8375    0.0000 C   0  0  0  0  0  0  0  0  0  0  0  0
    4.4042    1.9625    0.0000 C   0  0  0  0  0  0  0  0  0  0  0  0
    2.4542    2.3375    0.0000 C   0  0  0  0  0  0  0  0  0  0  0  0
    3.7542    3.0875    0.0000 O   0  0  0  0  0  0  0  0  0  0  0  0
    7.6542    0.8375    0.0000 C   0  0  0  0  0  0  0  0  0  0  0  0
    5.0542    2.3375    0.0000 C   0  0  0  0  0  0  0  0  0  0  0  0
    4.4042    1.2125    0.0000 C   0  0  0  0  0  0  0  0  0  0  0  0
    5.0542    0.8375    0.0000 C   0  0  0  0  0  0  0  0  0  0  0  0
    5.7042    1.9625    0.0000 C   0  0  0  0  0  0  0  0  0  0  0  0
    7.6542    0.0875    0.0000 F   0  0  0  0  0  0  0  0  0  0  0  0
    1.8042    1.9625    0.0000 C   0  0  0  0  0  0  0  0  0  0  0  0
    3.1042    1.2125    0.0000 C   0  0  0  0  0  0  0  0  0  0  0  0
    7.0042    1.9625    0.0000 C   0  0  0  0  0  0  0  0  0  0  0  0
    2.4542    0.0875    0.0000 O   0  0  0  0  0  0  0  0  0  0  0  0
    8.3000    1.2125    0.0000 C   0  0  0  0  0  0  0  0  0  0  0  0
    2.4542    0.8375    0.0000 C   0  0  0  0  0  0  0  0  0  0  0  0
    1.1542    2.3375    0.0000 C   0  0  0  0  0  0  0  0  0  0  0  0
    1.8042    1.2125    0.0000 C   0  0  0  0  0  0  0  0  0  0  0  0
    7.6542    2.3375    0.0000 C   0  0  0  0  0  0  0  0  0  0  0  0
    8.3000    1.9625    0.0000 C   0  0  0  0  0  0  0  0  0  0  0  0
    1.1542    0.8375    0.0000 C   0  0  0  0  0  0  0  0  0  0  0  0
    0.5042    1.9625    0.0000 C   0  0  0  0  0  0  0  0  0  0  0  0
    0.5042    1.2125    0.0000 C   0  0  0  0  0  0  0  0  0  0  0  0
  2  1  1  0  0  0  0
  3 12  1  0  0  0  0
  4  5  1  0  0  0  0
  5  3  1  0  0  0  0
  6  1  1  0  0  0  0
  7  2  1  0  0  0  0
  8  1  2  0  0  0  0
  9  4  1  0  0  0  0
 10  6  1  0  0  0  0
 11  6  1  0  0  0  0
 12 11  1  0  0  0  0
 13 10  1  0  0  0  0
 13  3  1  0  0  0  0
 14  9  1  0  0  0  0
 15  7  1  0  0  0  0
 16  2  1  0  0  0  0
 17  4  2  0  0  0  0
 18 20  1  0  0  0  0
 19  9  2  0  0  0  0
 20 16  1  0  0  0  0
 21 15  1  0  0  0  0
 22 15  2  0  0  0  0
 23 17  1  0  0  0  0
 24 23  2  0  0  0  0
 24 19  1  0  0  0  0
 25 22  1  0  0  0  0
 26 21  2  0  0  0  0
 26 27  1  0  0  0  0
 27 25  2  0  0  0  0
M  END
>  <ID>
6578932

>  <Supplier>
ChemBridge

>  <clogP>
-8.000000000000000e-002

>  <RB>
7

>  <tPSA>
1.183800000000000e+002

>  <Hacc>
7

>  <Hdon>
3

>  <LogSw>
-3.143000000000000e+000

>  <Group>
3

>  <Core>
052

$$$$
5244678
 OpenBabel03312015312D

 25 27  0  0  0  0  0  0  0  0999 V2000
   -3.4208   -0.7875    0.0000 C   0  0  0  0  0  0  0  0  0  0  0  0
   -3.4625   -1.4292    0.0000 S   0  0  0  0  0  0  0  0  0  0  0  0
   -4.0000   -0.5042    0.0000 C   0  0  0  0  0  0  0  0  0  0  0  0
   -4.4458   -0.9875    0.0000 C   0  0  0  0  0  0  0  0  0  0  0  0
   -4.1208   -1.5667    0.0000 C   0  0  0  0  0  0  0  0  0  0  0  0
   -2.8208   -0.4500    0.0000 C   0  0  0  0  0  0  0  0  0  0  0  0
    0.0375    0.5958    0.0000 C   0  0  0  0  0  0  0  0  0  0  0  0
    0.6000    0.2958    0.0000 C   0  0  0  0  0  0  0  0  0  0  0  0
   -2.8208    0.2333    0.0000 O   0  0  0  0  0  0  0  0  0  0  0  0
   -0.5458    0.2500    0.0000 C   0  0  0  0  0  0  0  0  0  0  0  0
   -4.1000    0.1708    0.0000 Cl  0  0  0  0  0  0  0  0  0  0  0  0
   -2.2458   -0.7875    0.0000 N   0  0  0  0  0  0  0  0  0  0  0  0
    0.6375   -0.3875    0.0000 C   0  0  0  0  0  0  0  0  0  0  0  0
   -0.5208   -0.4292    0.0000 C   0  0  0  0  0  0  0  0  0  0  0  0
    0.0792   -0.7500    0.0000 C   0  0  0  0  0  0  0  0  0  0  0  0
    0.0542    1.2500    0.0000 O   0  0  0  0  0  0  0  0  0  0  0  0
   -5.1000   -0.9667    0.0000 C   0  0  0  0  0  0  0  0  0  0  0  0
    1.1292    0.6833    0.0000 O   0  0  0  0  0  0  0  0  0  0  0  0
   -1.6833   -0.4500    0.0000 C   0  0  0  0  0  0  0  0  0  0  0  0
   -4.4708   -2.1292    0.0000 C   0  0  0  0  0  0  0  0  0  0  0  0
   -1.0833   -0.7667    0.0000 C   0  0  0  0  0  0  0  0  0  0  0  0
    0.6292    1.5500    0.0000 C   0  0  0  0  0  0  0  0  0  0  0  0
    1.7292    0.4208    0.0000 C   0  0  0  0  0  0  0  0  0  0  0  0
   -5.4458   -1.5500    0.0000 C   0  0  0  0  0  0  0  0  0  0  0  0
   -5.1208   -2.1292    0.0000 C   0  0  0  0  0  0  0  0  0  0  0  0
  2  1  1  0  0  0  0
  3  1  2  0  0  0  0
  4  3  1  0  0  0  0
  5  2  1  0  0  0  0
  5  4  2  0  0  0  0
  6  1  1  0  0  0  0
  7 10  1  0  0  0  0
  8 13  1  0  0  0  0
  8  7  2  0  0  0  0
  9  6  2  0  0  0  0
 10 14  2  0  0  0  0
 11  3  1  0  0  0  0
 12  6  1  0  0  0  0
 13 15  2  0  0  0  0
 14 21  1  0  0  0  0
 15 14  1  0  0  0  0
 16  7  1  0  0  0  0
 17  4  1  0  0  0  0
 18  8  1  0  0  0  0
 19 12  1  0  0  0  0
 20  5  1  0  0  0  0
 21 19  1  0  0  0  0
 22 16  1  0  0  0  0
 23 18  1  0  0  0  0
 24 17  2  0  0  0  0
 25 20  2  0  0  0  0
 25 24  1  0  0  0  0
M  END
>  <ID>
5244678

>  <Supplier>
ChemBridge

>  <clogP>
3.820000000000000e+000

>  <RB>
4

>  <tPSA>
4.756000000000000e+001

>  <Hacc>
3

>  <Hdon>
1

>  <LogSw>
-5.203000000000000e+000

>  <Group>
3

>  <Core>
351

$$$$
6380256
 OpenBabel03312015312D

 30 33  0  0  0  0  0  0  0  0999 V2000
    5.7292   -5.2000    0.0000 C   0  0  0  0  0  0  0  0  0  0  0  0
    5.4292   -4.5167    0.0000 C   0  0  0  0  0  0  0  0  0  0  0  0
    7.0542   -4.9417    0.0000 C   0  0  3  0  0  0  0  0  0  0  0  0
    5.2917   -5.8042    0.0000 N   0  0  0  0  0  0  0  0  0  0  0  0
    6.4542   -5.3917    0.0000 O   0  0  0  0  0  0  0  0  0  0  0  0
    5.7667   -3.8542    0.0000 C   0  0  0  0  0  0  0  0  0  0  0  0
    7.7250   -5.2875    0.0000 C   0  0  0  0  0  0  0  0  0  0  0  0
    7.0792   -4.1917    0.0000 N   0  0  0  0  0  0  0  0  0  0  0  0
    4.6792   -4.4292    0.0000 N   0  0  0  0  0  0  0  0  0  0  0  0
    6.5042   -3.7042    0.0000 C   0  0  0  0  0  0  0  0  0  0  0  0
    4.5417   -5.7292    0.0000 C   0  0  0  0  0  0  0  0  0  0  0  0
    4.2417   -5.0375    0.0000 N   0  0  0  0  0  0  0  0  0  0  0  0
    8.3542   -4.8792    0.0000 C   0  0  0  0  0  0  0  0  0  0  0  0
    7.7542   -6.0375    0.0000 C   0  0  0  0  0  0  0  0  0  0  0  0
    5.2667   -3.2875    0.0000 C   0  0  0  0  0  0  0  0  0  0  0  0
    6.7500   -2.9917    0.0000 C   0  0  0  0  0  0  0  0  0  0  0  0
    4.1042   -6.3375    0.0000 S   0  0  0  0  0  0  0  0  0  0  0  0
    9.0167   -5.2292    0.0000 C   0  0  0  0  0  0  0  0  0  0  0  0
    5.5167   -2.5667    0.0000 C   0  0  0  0  0  0  0  0  0  0  0  0
    8.4167   -6.3792    0.0000 C   0  0  0  0  0  0  0  0  0  0  0  0
    6.2542   -2.4250    0.0000 C   0  0  0  0  0  0  0  0  0  0  0  0
    9.0500   -5.9792    0.0000 C   0  0  0  0  0  0  0  0  0  0  0  0
    5.0167   -2.0000    0.0000 Br  0  0  0  0  0  0  0  0  0  0  0  0
    8.3292   -4.1292    0.0000 O   0  0  0  0  0  0  0  0  0  0  0  0
    8.4542   -7.1292    0.0000 O   0  0  0  0  0  0  0  0  0  0  0  0
    3.3542   -6.2542    0.0000 C   0  0  0  0  0  0  0  0  0  0  0  0
    8.9625   -3.7292    0.0000 C   0  0  0  0  0  0  0  0  0  0  0  0
    9.1167   -7.4792    0.0000 C   0  0  0  0  0  0  0  0  0  0  0  0
    3.0542   -5.5750    0.0000 C   0  0  0  0  0  0  0  0  0  0  0  0
    2.3042   -5.4917    0.0000 C   0  0  0  0  0  0  0  0  0  0  0  0
  2  1  2  0  0  0  0
  3  5  1  0  0  0  0
  4  1  1  0  0  0  0
  5  1  1  0  0  0  0
  6  2  1  0  0  0  0
  7  3  1  0  0  0  0
  8  3  1  0  0  0  0
  8 10  1  0  0  0  0
  9  2  1  0  0  0  0
  9 12  2  0  0  0  0
 10  6  2  0  0  0  0
 11  4  2  0  0  0  0
 12 11  1  0  0  0  0
 13  7  2  0  0  0  0
 14  7  1  0  0  0  0
 15  6  1  0  0  0  0
 16 10  1  0  0  0  0
 16 21  2  0  0  0  0
 17 11  1  0  0  0  0
 18 13  1  0  0  0  0
 19 15  2  0  0  0  0
 20 14  2  0  0  0  0
 21 19  1  0  0  0  0
 22 20  1  0  0  0  0
 22 18  2  0  0  0  0
 23 19  1  0  0  0  0
 24 13  1  0  0  0  0
 25 20  1  0  0  0  0
 26 17  1  0  0  0  0
 27 24  1  0  0  0  0
 28 25  1  0  0  0  0
 29 26  1  0  0  0  0
 30 29  1  0  0  0  0
M  END
>  <ID>
6380256

>  <Supplier>
ChemBridge

>  <clogP>
5.410000000000000e+000

>  <RB>
2

>  <tPSA>
7.839000000000000e+001

>  <Hacc>
6

>  <Hdon>
1

>  <LogSw>
-8.497000000000000e+000

>  <Group>
1

>  <Core>
070

$$$$
7179652
 OpenBabel03312015312D

 27 29  0  0  0  0  0  0  0  0999 V2000
   -0.6708    0.2708    0.0000 C   0  0  0  0  0  0  0  0  0  0  0  0
   -0.6708    0.9458    0.0000 C   0  0  0  0  0  0  0  0  0  0  0  0
   -1.3458    0.0500    0.0000 S   0  0  0  0  0  0  0  0  0  0  0  0
   -1.3458    1.1708    0.0000 C   0  0  0  0  0  0  0  0  0  0  0  0
   -1.7458    0.6125    0.0000 C   0  0  0  0  0  0  0  0  0  0  0  0
   -0.0625   -0.0792    0.0000 N   0  0  0  0  0  0  0  0  0  0  0  0
    1.7792   -1.8500    0.0000 N   0  0  0  0  0  0  0  0  0  0  0  0
   -0.0833    1.3625    0.0000 C   0  0  0  0  0  0  0  0  0  0  0  0
    1.2000   -2.2042    0.0000 C   0  0  0  0  0  0  0  0  0  0  0  0
    2.3667   -2.2042    0.0000 C   0  0  0  0  0  0  0  0  0  0  0  0
    1.7792   -3.2500    0.0000 C   0  0  0  0  0  0  0  0  0  0  0  0
   -0.0625   -0.7792    0.0000 C   0  0  0  0  0  0  0  0  0  0  0  0
    2.3667   -2.9042    0.0000 C   0  0  0  0  0  0  0  0  0  0  0  0
    1.2000   -2.9042    0.0000 C   0  0  0  0  0  0  0  0  0  0  0  0
    0.5500   -1.8500    0.0000 S   0  0  0  0  0  0  0  0  0  0  0  0
   -0.1708    2.0625    0.0000 O   0  0  0  0  0  0  0  0  0  0  0  0
   -0.6458   -1.1500    0.0000 O   0  0  0  0  0  0  0  0  0  0  0  0
    0.5500   -1.1500    0.0000 C   0  0  0  0  0  0  0  0  0  0  0  0
    0.5167    1.0833    0.0000 O   0  0  0  0  0  0  0  0  0  0  0  0
   -1.5708    1.8458    0.0000 C   0  0  0  0  0  0  0  0  0  0  0  0
   -2.4458    0.6458    0.0000 C   0  0  0  0  0  0  0  0  0  0  0  0
    1.7542   -3.9500    0.0000 C   0  0  0  0  0  0  0  0  0  0  0  0
    2.9875   -1.8500    0.0000 C   0  0  0  0  0  0  0  0  0  0  0  0
    2.9875   -3.2500    0.0000 C   0  0  0  0  0  0  0  0  0  0  0  0
    1.0792    1.4833    0.0000 C   0  0  0  0  0  0  0  0  0  0  0  0
    3.5792   -2.2042    0.0000 C   0  0  0  0  0  0  0  0  0  0  0  0
    3.5792   -2.9042    0.0000 C   0  0  0  0  0  0  0  0  0  0  0  0
  2  1  2  0  0  0  0
  3  1  1  0  0  0  0
  4  2  1  0  0  0  0
  5  3  1  0  0  0  0
  5  4  2  0  0  0  0
  6  1  1  0  0  0  0
  7  9  1  0  0  0  0
  8  2  1  0  0  0  0
  9 15  1  0  0  0  0
 10  7  2  0  0  0  0
 10 13  1  0  0  0  0
 11 14  1  0  0  0  0
 12  6  1  0  0  0  0
 13 11  2  0  0  0  0
 14  9  2  0  0  0  0
 15 18  1  0  0  0  0
 16  8  2  0  0  0  0
 17 12  2  0  0  0  0
 18 12  1  0  0  0  0
 19  8  1  0  0  0  0
 20  4  1  0  0  0  0
 21  5  1  0  0  0  0
 22 11  1  0  0  0  0
 23 10  1  0  0  0  0
 24 13  1  0  0  0  0
 25 19  1  0  0  0  0
 26 23  2  0  0  0  0
 26 27  1  0  0  0  0
 27 24  2  0  0  0  0
M  END
>  <ID>
7179652

>  <Supplier>
ChemBridge

>  <clogP>
5.319999999999999e+000

>  <RB>
5

>  <tPSA>
6.829000000000001e+001

>  <Hacc>
4

>  <Hdon>
1

>  <LogSw>
-6.662999999999998e+000

>  <Group>
2

>  <Core>
098

$$$$
5282529
 OpenBabel03312015312D

 23 24  0  0  0  0  0  0  0  0999 V2000
    3.1542   -2.3042    0.0000 S   0  0  0  0  0  0  0  0  0  0  0  0
   -0.6833    1.0500    0.0000 C   0  0  0  0  0  0  0  0  0  0  0  0
   -1.6458    1.6125    0.0000 C   0  0  0  0  0  0  0  0  0  0  0  0
   -0.7000   -0.0667    0.0000 N   0  0  0  0  0  0  0  0  0  0  0  0
    2.1792   -1.7667    0.0000 C   0  0  0  0  0  0  0  0  0  0  0  0
   -1.6458    2.7125    0.0000 C   0  0  0  0  0  0  0  0  0  0  0  0
   -2.6000    3.2708    0.0000 C   0  0  0  0  0  0  0  0  0  0  0  0
    3.7167   -1.3292    0.0000 O   0  0  0  0  0  0  0  0  0  0  0  0
    2.6167   -3.2875    0.0000 O   0  0  0  0  0  0  0  0  0  0  0  0
    4.1375   -2.8667    0.0000 N   0  0  0  0  0  0  0  0  0  0  0  0
   -3.5625    2.7125    0.0000 C   0  0  0  0  0  0  0  0  0  0  0  0
    0.2792    1.6125    0.0000 O   0  0  0  0  0  0  0  0  0  0  0  0
   -2.6000    1.0500    0.0000 C   0  0  0  0  0  0  0  0  0  0  0  0
   -3.5625    1.5958    0.0000 C   0  0  0  0  0  0  0  0  0  0  0  0
    2.1792   -0.6500    0.0000 C   0  0  0  0  0  0  0  0  0  0  0  0
    1.2167   -2.3292    0.0000 C   0  0  0  0  0  0  0  0  0  0  0  0
    0.2542   -0.6500    0.0000 C   0  0  0  0  0  0  0  0  0  0  0  0
    0.2542   -1.7667    0.0000 C   0  0  0  0  0  0  0  0  0  0  0  0
    1.2167   -0.1042    0.0000 C   0  0  0  0  0  0  0  0  0  0  0  0
   -2.6000    4.3792    0.0000 O   0  0  0  0  0  0  0  0  0  0  0  0
   -4.5208    3.2708    0.0000 O   0  0  0  0  0  0  0  0  0  0  0  0
   -1.6458    4.9292    0.0000 C   0  0  0  0  0  0  0  0  0  0  0  0
   -4.5208    4.3792    0.0000 C   0  0  0  0  0  0  0  0  0  0  0  0
  2  4  1  0  0  0  0
  3  2  1  0  0  0  0
  4 17  1  0  0  0  0
  5  1  1  0  0  0  0
  6  3  2  0  0  0  0
  7  6  1  0  0  0  0
  8  1  2  0  0  0  0
  9  1  2  0  0  0  0
 10  1  1  0  0  0  0
 11 14  1  0  0  0  0
 11  7  2  0  0  0  0
 12  2  2  0  0  0  0
 13  3  1  0  0  0  0
 14 13  2  0  0  0  0
 15  5  1  0  0  0  0
 16  5  2  0  0  0  0
 17 18  2  0  0  0  0
 18 16  1  0  0  0  0
 19 15  2  0  0  0  0
 19 17  1  0  0  0  0
 20  7  1  0  0  0  0
 21 11  1  0  0  0  0
 22 20  1  0  0  0  0
 23 21  1  0  0  0  0
M  END
>  <ID>
5282529

>  <Supplier>
ChemBridge

>  <clogP>
8.900000000000000e-001

>  <RB>
3

>  <tPSA>
1.077200000000000e+002

>  <Hacc>
6

>  <Hdon>
2

>  <LogSw>
-2.413000000000000e+000

>  <Group>
2

>  <Core>
234

$$$$
7179657
 OpenBabel03312015312D

 19 20  0  0  0  0  0  0  0  0999 V2000
    2.2250   -0.8917    0.0000 S   0  0  0  0  0  0  0  0  0  0  0  0
    2.7125   -1.2375    0.0000 N   0  0  0  0  0  0  0  0  0  0  0  0
    3.2417   -1.2292    0.0000 C   0  0  0  0  0  0  0  0  0  0  0  0
    3.5000   -0.7750    0.0000 C   0  0  0  0  0  0  0  0  0  0  0  0
    4.0292   -0.7667    0.0000 C   0  0  0  0  0  0  0  0  0  0  0  0
    3.5042   -1.6875    0.0000 C   0  0  0  0  0  0  0  0  0  0  0  0
    1.7542   -0.8292    0.0000 C   0  0  0  0  0  0  0  0  0  0  0  0
    2.4417   -0.3375    0.0000 O   0  0  0  0  0  0  0  0  0  0  0  0
    2.0042   -1.4500    0.0000 O   0  0  0  0  0  0  0  0  0  0  0  0
    4.3000   -1.2250    0.0000 C   0  0  0  0  0  0  0  0  0  0  0  0
    4.0375   -1.6792    0.0000 C   0  0  0  0  0  0  0  0  0  0  0  0
    4.8250   -1.2167    0.0000 O   0  0  0  0  0  0  0  0  0  0  0  0
    1.4667   -1.2000    0.0000 C   0  0  0  0  0  0  0  0  0  0  0  0
    1.5792   -0.3875    0.0000 C   0  0  0  0  0  0  0  0  0  0  0  0
    0.8250   -0.6917    0.0000 C   0  0  0  0  0  0  0  0  0  0  0  0
    1.1167   -0.3250    0.0000 C   0  0  0  0  0  0  0  0  0  0  0  0
    1.0000   -1.1292    0.0000 C   0  0  0  0  0  0  0  0  0  0  0  0
    0.3542   -0.6292    0.0000 Cl  0  0  0  0  0  0  0  0  0  0  0  0
    3.2375   -0.3167    0.0000 C   0  0  0  0  0  0  0  0  0  0  0  0
  2  1  1  0  0  0  0
  3  2  2  0  0  0  0
  4  3  1  0  0  0  0
  5  4  2  0  0  0  0
  6  3  1  0  0  0  0
  7  1  1  0  0  0  0
  8  1  2  0  0  0  0
  9  1  2  0  0  0  0
 10 11  1  0  0  0  0
 10  5  1  0  0  0  0
 11  6  2  0  0  0  0
 12 10  2  0  0  0  0
 13  7  1  0  0  0  0
 14  7  2  0  0  0  0
 15 16  2  0  0  0  0
 15 17  1  0  0  0  0
 16 14  1  0  0  0  0
 17 13  2  0  0  0  0
 18 15  1  0  0  0  0
 19  4  1  0  0  0  0
M  END
>  <ID>
7179657

>  <Supplier>
ChemBridge

>  <clogP>
3.250000000000000e+000

>  <RB>
1

>  <tPSA>
6.356999999999999e+001

>  <Hacc>
4

>  <Hdon>
0

>  <LogSw>
-4.133000000000000e+000

>  <Group>
2

$$$$
5582601
 OpenBabel03312015312D

 19 20  0  0  0  0  0  0  0  0999 V2000
   -1.2625   -0.6167    0.0000 C   0  0  0  0  0  0  0  0  0  0  0  0
   -2.0000   -0.8375    0.0000 N   0  0  0  0  0  0  0  0  0  0  0  0
   -1.1000    0.1208    0.0000 C   0  0  0  0  0  0  0  0  0  0  0  0
   -0.3833    0.3625    0.0000 C   0  0  3  0  0  0  0  0  0  0  0  0
   -0.7000   -1.1375    0.0000 O   0  0  0  0  0  0  0  0  0  0  0  0
   -0.2000    1.0833    0.0000 C   0  0  0  0  0  0  0  0  0  0  0  0
   -2.1833   -1.6000    0.0000 C   0  0  0  0  0  0  0  0  0  0  0  0
   -2.5625   -3.0375    0.0000 C   0  0  0  0  0  0  0  0  0  0  0  0
   -2.7625   -3.7792    0.0000 Cl  0  0  0  0  0  0  0  0  0  0  0  0
   -1.6625   -2.1375    0.0000 C   0  0  0  0  0  0  0  0  0  0  0  0
   -2.9000   -1.8000    0.0000 C   0  0  0  0  0  0  0  0  0  0  0  0
   -1.8458   -2.8375    0.0000 C   0  0  0  0  0  0  0  0  0  0  0  0
   -3.1000   -2.5167    0.0000 C   0  0  0  0  0  0  0  0  0  0  0  0
    0.1792   -0.1542    0.0000 C   0  0  0  0  0  0  0  0  0  0  0  0
    0.5167    1.3208    0.0000 C   0  0  0  0  0  0  0  0  0  0  0  0
   -0.7625    1.6000    0.0000 C   0  0  0  0  0  0  0  0  0  0  0  0
   -0.5833    2.3208    0.0000 C   0  0  0  0  0  0  0  0  0  0  0  0
    0.7000    2.0458    0.0000 C   0  0  0  0  0  0  0  0  0  0  0  0
    0.1167    2.5625    0.0000 C   0  0  0  0  0  0  0  0  0  0  0  0
  2  1  1  0  0  0  0
  3  1  1  0  0  0  0
  4  3  1  0  0  0  0
  5  1  2  0  0  0  0
  6  4  1  0  0  0  0
  7  2  1  0  0  0  0
  8 13  2  0  0  0  0
  8 12  1  0  0  0  0
  9  8  1  0  0  0  0
 10  7  1  0  0  0  0
 11  7  2  0  0  0  0
 12 10  2  0  0  0  0
 13 11  1  0  0  0  0
 14  4  1  0  0  0  0
 15  6  1  0  0  0  0
 16  6  2  0  0  0  0
 17 16  1  0  0  0  0
 18 15  2  0  0  0  0
 19 17  2  0  0  0  0
 19 18  1  0  0  0  0
M  END
>  <ID>
5582601

>  <Supplier>
ChemBridge

>  <clogP>
4.630000000000000e+000

>  <RB>
4

>  <tPSA>
2.910000000000000e+001

>  <Hacc>
1

>  <Hdon>
1

>  <LogSw>
-5.151000000000000e+000

>  <Group>
3

$$$$
7960980
 OpenBabel03312015312D

 17 18  0  0  0  0  0  0  0  0999 V2000
    5.5792    0.7583    0.0000 C   0  0  0  0  0  0  0  0  0  0  0  0
    4.9292    0.3833    0.0000 N   0  0  0  0  0  0  0  0  0  0  0  0
    6.2625    0.4583    0.0000 N   0  0  0  0  0  0  0  0  0  0  0  0
    4.2792    0.7583    0.0000 C   0  0  0  0  0  0  0  0  0  0  0  0
    5.6542    1.5083    0.0000 S   0  0  0  0  0  0  0  0  0  0  0  0
    6.7667    1.0125    0.0000 C   0  0  0  0  0  0  0  0  0  0  0  0
    3.6292    0.3833    0.0000 C   0  0  0  0  0  0  0  0  0  0  0  0
    6.3917    1.6625    0.0000 C   0  0  0  0  0  0  0  0  0  0  0  0
    4.2792    1.5083    0.0000 O   0  0  0  0  0  0  0  0  0  0  0  0
    2.3292    0.3833    0.0000 S   0  0  0  0  0  0  0  0  0  0  0  0
    2.9792    0.7583    0.0000 C   0  0  0  0  0  0  0  0  0  0  0  0
    1.6792    0.7583    0.0000 C   0  0  0  0  0  0  0  0  0  0  0  0
    1.6792    1.5083    0.0000 C   0  0  0  0  0  0  0  0  0  0  0  0
    1.0292    0.3833    0.0000 C   0  0  0  0  0  0  0  0  0  0  0  0
    0.3792    0.7583    0.0000 C   0  0  0  0  0  0  0  0  0  0  0  0
    1.0292    1.8833    0.0000 C   0  0  0  0  0  0  0  0  0  0  0  0
    0.3792    1.5083    0.0000 C   0  0  0  0  0  0  0  0  0  0  0  0
  2  1  1  0  0  0  0
  3  1  2  0  0  0  0
  4  2  1  0  0  0  0
  5  1  1  0  0  0  0
  6  3  1  0  0  0  0
  7  4  1  0  0  0  0
  8  5  1  0  0  0  0
  8  6  2  0  0  0  0
  9  4  2  0  0  0  0
 10 11  1  0  0  0  0
 11  7  1  0  0  0  0
 12 10  1  0  0  0  0
 13 12  1  0  0  0  0
 14 12  2  0  0  0  0
 15 14  1  0  0  0  0
 16 13  2  0  0  0  0
 16 17  1  0  0  0  0
 17 15  2  0  0  0  0
M  END
>  <ID>
7960980

>  <Supplier>
ChemBridge

>  <clogP>
2.804000000000000e+000

>  <RB>
5

>  <tPSA>
4.199000000000000e+001

>  <Hacc>
2

>  <Hdon>
1

>  <LogSw>
-3.523000000000000e+000

>  <Group>
3

>  <Core>
520

$$$$
5582608
 OpenBabel03312015312D

 32 35  0  0  0  0  0  0  0  0999 V2000
   -2.7500    0.7458    0.0000 N   0  0  0  0  0  0  0  0  0  0  0  0
   -2.1833    1.0125    0.0000 C   0  0  0  0  0  0  0  0  0  0  0  0
   -2.7000    0.1125    0.0000 C   0  0  0  0  0  0  0  0  0  0  0  0
   -1.7458    0.5333    0.0000 C   0  0  0  0  0  0  0  0  0  0  0  0
   -2.0708   -0.0167    0.0000 C   0  0  0  0  0  0  0  0  0  0  0  0
   -4.0333    2.7083    0.0000 N   0  3  0  0  0  0  0  0  0  0  0  0
   -3.2458    1.1708    0.0000 C   0  0  0  0  0  0  0  0  0  0  0  0
   -0.1125   -0.0167    0.0000 C   0  0  0  0  0  0  0  0  0  0  0  0
   -1.0958    0.5333    0.0000 C   0  0  0  0  0  0  0  0  0  0  0  0
   -3.3458    1.8000    0.0000 C   0  0  0  0  0  0  0  0  0  0  0  0
   -3.9458    2.0458    0.0000 C   0  0  0  0  0  0  0  0  0  0  0  0
   -0.7625   -0.0167    0.0000 C   0  0  0  0  0  0  0  0  0  0  0  0
    0.2042   -0.5792    0.0000 N   0  0  0  0  0  0  0  0  0  0  0  0
   -1.7458   -0.5792    0.0000 C   0  0  0  0  0  0  0  0  0  0  0  0
   -2.0708    1.6625    0.0000 O   0  0  0  0  0  0  0  0  0  0  0  0
   -3.2000   -0.3167    0.0000 O   0  0  0  0  0  0  0  0  0  0  0  0
   -3.5208    3.0958    0.0000 O   0  5  0  0  0  0  0  0  0  0  0  0
   -4.6333    2.9583    0.0000 O   0  0  0  0  0  0  0  0  0  0  0  0
    2.8292   -0.5792    0.0000 C   0  0  0  0  0  0  0  0  0  0  0  0
    2.1667   -0.5792    0.0000 C   0  0  0  0  0  0  0  0  0  0  0  0
    0.2042    0.5333    0.0000 O   0  0  0  0  0  0  0  0  0  0  0  0
   -1.0958   -0.5792    0.0000 C   0  0  0  0  0  0  0  0  0  0  0  0
    3.1500   -1.1375    0.0000 O   0  0  0  0  0  0  0  0  0  0  0  0
    0.8667   -0.5792    0.0000 C   0  0  0  0  0  0  0  0  0  0  0  0
    1.8500   -0.0167    0.0000 C   0  0  0  0  0  0  0  0  0  0  0  0
    1.8500   -1.1375    0.0000 C   0  0  0  0  0  0  0  0  0  0  0  0
    1.1875   -0.0167    0.0000 C   0  0  0  0  0  0  0  0  0  0  0  0
    1.1875   -1.1375    0.0000 C   0  0  0  0  0  0  0  0  0  0  0  0
   -3.7500    0.7708    0.0000 C   0  0  0  0  0  0  0  0  0  0  0  0
   -4.4708    1.6500    0.0000 C   0  0  0  0  0  0  0  0  0  0  0  0
   -4.3500    1.0125    0.0000 C   0  0  0  0  0  0  0  0  0  0  0  0
    3.1500   -0.0167    0.0000 C   0  0  0  0  0  0  0  0  0  0  0  0
  2  1  1  0  0  0  0
  3  1  1  0  0  0  0
  4  2  1  0  0  0  0
  4  5  1  0  0  0  0
  5  3  1  0  0  0  0
  6 11  1  0  0  0  0
  7  1  1  0  0  0  0
  8 12  1  0  0  0  0
  9  4  2  0  0  0  0
 10  7  2  0  0  0  0
 11 10  1  0  0  0  0
 12  9  1  0  0  0  0
 13  8  1  0  0  0  0
 14  5  2  0  0  0  0
 15  2  2  0  0  0  0
 16  3  2  0  0  0  0
 17  6  1  0  0  0  0
 18  6  2  0  0  0  0
 19 20  1  0  0  0  0
 20 26  1  0  0  0  0
 21  8  2  0  0  0  0
 22 14  1  0  0  0  0
 22 12  2  0  0  0  0
 23 19  2  0  0  0  0
 24 13  1  0  0  0  0
 25 27  1  0  0  0  0
 25 20  2  0  0  0  0
 26 28  2  0  0  0  0
 27 24  2  0  0  0  0
 28 24  1  0  0  0  0
 29  7  1  0  0  0  0
 30 31  1  0  0  0  0
 30 11  2  0  0  0  0
 31 29  2  0  0  0  0
 32 19  1  0  0  0  0
M  CHG  2   6   1  17  -1
M  END
>  <ID>
5582608

>  <Supplier>
ChemBridge

>  <clogP>
3.310000000000000e+000

>  <RB>
4

>  <tPSA>
1.266900000000000e+002

>  <Hacc>
6

>  <Hdon>
1

>  <LogSw>
-5.547000000000000e+000

>  <Group>
1

>  <Core>
115

$$$$
9110566
 OpenBabel03312015312D

 25 27  0  0  0  0  0  0  0  0999 V2000
    4.3375    1.1708    0.0000 S   0  0  0  0  0  0  0  0  0  0  0  0
    6.9375    1.1708    0.0000 C   0  0  0  0  0  0  0  0  0  0  0  0
    7.5792    1.5458    0.0000 N   0  0  0  0  0  0  0  0  0  0  0  0
    3.8042    1.7000    0.0000 N   0  0  0  0  0  0  0  0  0  0  0  0
    4.9875    1.5458    0.0000 C   0  0  0  0  0  0  0  0  0  0  0  0
    6.2875    1.5458    0.0000 C   0  0  0  0  0  0  0  0  0  0  0  0
    3.7625    0.6875    0.0000 O   0  0  0  0  0  0  0  0  0  0  0  0
    4.7667    0.5583    0.0000 O   0  0  0  0  0  0  0  0  0  0  0  0
    5.6375    1.1708    0.0000 C   0  0  0  0  0  0  0  0  0  0  0  0
    8.2292    1.1708    0.0000 C   0  0  0  0  0  0  0  0  0  0  0  0
    8.2292    0.4208    0.0000 N   0  0  0  0  0  0  0  0  0  0  0  0
    6.9375    0.4208    0.0000 O   0  0  0  0  0  0  0  0  0  0  0  0
    3.0792    1.5083    0.0000 C   0  0  0  0  0  0  0  0  0  0  0  0
    4.9875    2.2958    0.0000 C   0  0  0  0  0  0  0  0  0  0  0  0
    6.2875    2.2958    0.0000 C   0  0  0  0  0  0  0  0  0  0  0  0
    5.6375    2.6708    0.0000 C   0  0  0  0  0  0  0  0  0  0  0  0
    8.8792    0.0458    0.0000 C   0  0  0  0  0  0  0  0  0  0  0  0
    8.8792    1.5458    0.0000 C   0  0  0  0  0  0  0  0  0  0  0  0
    2.5542    2.0375    0.0000 C   0  0  0  0  0  0  0  0  0  0  0  0
    2.8875    0.7833    0.0000 C   0  0  0  0  0  0  0  0  0  0  0  0
    9.5292    0.4208    0.0000 C   0  0  0  0  0  0  0  0  0  0  0  0
    9.5292    1.1708    0.0000 C   0  0  0  0  0  0  0  0  0  0  0  0
    2.1625    0.5875    0.0000 C   0  0  0  0  0  0  0  0  0  0  0  0
    1.8292    1.8458    0.0000 C   0  0  0  0  0  0  0  0  0  0  0  0
    1.6292    1.1208    0.0000 C   0  0  0  0  0  0  0  0  0  0  0  0
  2  6  1  0  0  0  0
  3  2  1  0  0  0  0
  4  1  1  0  0  0  0
  5  1  1  0  0  0  0
  6  9  1  0  0  0  0
  7  1  2  0  0  0  0
  8  1  2  0  0  0  0
  9  5  2  0  0  0  0
 10  3  1  0  0  0  0
 11 10  2  0  0  0  0
 12  2  2  0  0  0  0
 13  4  1  0  0  0  0
 14  5  1  0  0  0  0
 15 16  1  0  0  0  0
 15  6  2  0  0  0  0
 16 14  2  0  0  0  0
 17 11  1  0  0  0  0
 17 21  2  0  0  0  0
 18 10  1  0  0  0  0
 19 13  2  0  0  0  0
 20 13  1  0  0  0  0
 21 22  1  0  0  0  0
 22 18  2  0  0  0  0
 23 20  2  0  0  0  0
 24 19  1  0  0  0  0
 25 23  1  0  0  0  0
 25 24  2  0  0  0  0
M  END
>  <ID>
9110566

>  <Supplier>
ChemBridge

>  <clogP>
2.853000000000000e+000

>  <RB>
4

>  <tPSA>
8.816000000000004e+001

>  <Hacc>
4

>  <Hdon>
2

>  <LogSw>
-4.213000000000000e+000

>  <Group>
2

>  <Core>
272

$$$$
9080819
 OpenBabel03312015312D

 25 27  0  0  0  0  0  0  0  0999 V2000
    5.2875    3.2333    0.0000 C   0  0  0  0  0  0  0  0  0  0  0  0
    4.5375    3.2333    0.0000 N   0  0  0  0  0  0  0  0  0  0  0  0
    4.1625    3.8833    0.0000 C   0  0  0  0  0  0  0  0  0  0  0  0
    5.6625    2.5833    0.0000 C   0  0  0  0  0  0  0  0  0  0  0  0
    5.2875    1.9333    0.0000 N   0  0  0  0  0  0  0  0  0  0  0  0
    5.6625    3.8833    0.0000 C   0  0  0  0  0  0  0  0  0  0  0  0
    3.4125    3.8833    0.0000 C   0  0  0  0  0  0  0  0  0  0  0  0
    6.4125    2.5833    0.0000 C   0  0  0  0  0  0  0  0  0  0  0  0
    4.5375    4.5292    0.0000 O   0  0  0  0  0  0  0  0  0  0  0  0
    4.5375    0.6375    0.0000 O   0  0  0  0  0  0  0  0  0  0  0  0
    3.0375    4.5292    0.0000 C   0  0  0  0  0  0  0  0  0  0  0  0
    3.0375    3.2333    0.0000 C   0  0  0  0  0  0  0  0  0  0  0  0
    6.4125    3.8833    0.0000 C   0  0  0  0  0  0  0  0  0  0  0  0
    6.7875    3.2333    0.0000 C   0  0  0  0  0  0  0  0  0  0  0  0
    1.9125    3.8833    0.0000 C   0  0  0  0  0  0  0  0  0  0  0  0
    2.2875    4.5292    0.0000 C   0  0  0  0  0  0  0  0  0  0  0  0
    2.2875    3.2333    0.0000 C   0  0  0  0  0  0  0  0  0  0  0  0
    5.6625    1.2875    0.0000 C   0  0  0  0  0  0  0  0  0  0  0  0
    4.5375    1.9333    0.0000 C   0  0  0  0  0  0  0  0  0  0  0  0
    6.7875    4.5292    0.0000 O   0  0  0  0  0  0  0  0  0  0  0  0
    1.1625    3.8833    0.0000 O   0  0  0  0  0  0  0  0  0  0  0  0
    5.2875    0.6375    0.0000 C   0  0  0  0  0  0  0  0  0  0  0  0
    4.1625    1.2875    0.0000 C   0  0  0  0  0  0  0  0  0  0  0  0
    0.7875    3.2333    0.0000 C   0  0  0  0  0  0  0  0  0  0  0  0
    7.5375    4.5292    0.0000 C   0  0  0  0  0  0  0  0  0  0  0  0
  2  1  1  0  0  0  0
  3  2  1  0  0  0  0
  4  1  2  0  0  0  0
  5  4  1  0  0  0  0
  6  1  1  0  0  0  0
  7  3  1  0  0  0  0
  8  4  1  0  0  0  0
  9  3  2  0  0  0  0
 10 23  1  0  0  0  0
 10 22  1  0  0  0  0
 11  7  2  0  0  0  0
 12  7  1  0  0  0  0
 13  6  2  0  0  0  0
 14 13  1  0  0  0  0
 14  8  2  0  0  0  0
 15 17  1  0  0  0  0
 16 11  1  0  0  0  0
 16 15  2  0  0  0  0
 17 12  2  0  0  0  0
 18  5  1  0  0  0  0
 19  5  1  0  0  0  0
 20 13  1  0  0  0  0
 21 15  1  0  0  0  0
 22 18  1  0  0  0  0
 23 19  1  0  0  0  0
 24 21  1  0  0  0  0
 25 20  1  0  0  0  0
M  END
>  <ID>
9080819

>  <Supplier>
ChemBridge

>  <clogP>
2.698000000000000e+000

>  <RB>
3

>  <tPSA>
6.003000000000000e+001

>  <Hacc>
4

>  <Hdon>
1

>  <LogSw>
-4.001000000000000e+000

>  <Group>
2

>  <Core>
511

$$$$
7972549
 OpenBabel03312015312D

 19 20  0  0  0  0  0  0  0  0999 V2000
    1.4625    1.6708    0.0000 C   0  0  0  0  0  0  0  0  0  0  0  0
    1.4625    0.9208    0.0000 C   0  0  0  0  0  0  0  0  0  0  0  0
    0.7500    1.9000    0.0000 O   0  0  0  0  0  0  0  0  0  0  0  0
    0.7500    0.6875    0.0000 O   0  0  0  0  0  0  0  0  0  0  0  0
    0.3042    1.2958    0.0000 C   0  0  0  0  0  0  0  0  0  0  0  0
    2.1125    2.0458    0.0000 C   0  0  0  0  0  0  0  0  0  0  0  0
    4.0625    1.6708    0.0000 N   0  0  0  0  0  0  0  0  0  0  0  0
    4.7125    2.0458    0.0000 C   0  0  0  0  0  0  0  0  0  0  0  0
    2.1125    0.5458    0.0000 C   0  0  0  0  0  0  0  0  0  0  0  0
    5.9667    1.7083    0.0000 C   0  0  0  0  0  0  0  0  0  0  0  0
    5.2417    1.5125    0.0000 C   0  0  0  0  0  0  0  0  0  0  0  0
    2.7625    1.6708    0.0000 C   0  0  0  0  0  0  0  0  0  0  0  0
    3.4125    2.0458    0.0000 C   0  0  0  0  0  0  0  0  0  0  0  0
    2.7625    0.9208    0.0000 C   0  0  0  0  0  0  0  0  0  0  0  0
    4.2792    2.6583    0.0000 C   0  0  0  0  0  0  0  0  0  0  0  0
    5.2875    2.5250    0.0000 C   0  0  0  0  0  0  0  0  0  0  0  0
    6.3417    1.0583    0.0000 C   0  0  0  0  0  0  0  0  0  0  0  0
    6.6417    2.0250    0.0000 C   0  0  0  0  0  0  0  0  0  0  0  0
    5.7042    2.4125    0.0000 C   0  0  0  0  0  0  0  0  0  0  0  0
  2  1  1  0  0  0  0
  3  1  1  0  0  0  0
  4  2  1  0  0  0  0
  5  3  1  0  0  0  0
  5  4  1  0  0  0  0
  6  1  2  0  0  0  0
  7 13  1  0  0  0  0
  8  7  1  0  0  0  0
  9  2  2  0  0  0  0
  9 14  1  0  0  0  0
 10 11  1  0  0  0  0
 11  8  1  0  0  0  0
 12  6  1  0  0  0  0
 13 12  1  0  0  0  0
 14 12  2  0  0  0  0
 15  8  1  0  0  0  0
 16  8  1  0  0  0  0
 17 10  1  0  0  0  0
 18 10  1  0  0  0  0
 19 10  1  0  0  0  0
M  END
>  <ID>
7972549

>  <Supplier>
ChemBridge

>  <clogP>
4.167999999999990e+000

>  <RB>
5

>  <tPSA>
3.049000000000000e+001

>  <Hacc>
3

>  <Hdon>
1

>  <LogSw>
-3.673000000000000e+000

>  <Group>
1

$$$$
7972548
 OpenBabel03312015312D

 25 28  0  0  0  0  0  0  0  0999 V2000
    8.1292    2.8708    0.0000 N   0  0  0  0  0  0  0  0  0  0  0  0
    7.7542    3.5208    0.0000 C   0  0  0  0  0  0  0  0  0  0  0  0
    7.6250    2.3083    0.0000 N   0  0  0  0  0  0  0  0  0  0  0  0
    7.0167    3.3625    0.0000 S   0  0  0  0  0  0  0  0  0  0  0  0
    6.9417    2.6208    0.0000 C   0  0  0  0  0  0  0  0  0  0  0  0
    8.2542    4.0667    0.0000 N   0  0  0  0  0  0  0  0  0  0  0  0
    8.8625    3.0250    0.0000 C   0  0  0  0  0  0  0  0  0  0  0  0
    8.9375    3.7708    0.0000 N   0  0  0  0  0  0  0  0  0  0  0  0
    3.6917    2.2458    0.0000 C   0  0  0  0  0  0  0  0  0  0  0  0
    4.3417    2.6208    0.0000 N   0  0  0  0  0  0  0  0  0  0  0  0
    6.2917    2.2458    0.0000 C   0  0  0  0  0  0  0  0  0  0  0  0
    3.0417    2.6208    0.0000 C   0  0  0  0  0  0  0  0  0  0  0  0
    4.9917    2.2458    0.0000 C   0  0  0  0  0  0  0  0  0  0  0  0
    5.6417    2.6208    0.0000 C   0  0  0  0  0  0  0  0  0  0  0  0
    3.6917    1.4958    0.0000 O   0  0  0  0  0  0  0  0  0  0  0  0
    3.0417    3.3708    0.0000 C   0  0  0  0  0  0  0  0  0  0  0  0
    2.3917    2.2458    0.0000 C   0  0  0  0  0  0  0  0  0  0  0  0
    1.7417    3.3708    0.0000 C   0  0  0  0  0  0  0  0  0  0  0  0
    2.3917    3.7458    0.0000 C   0  0  0  0  0  0  0  0  0  0  0  0
    1.7417    2.6208    0.0000 C   0  0  0  0  0  0  0  0  0  0  0  0
    9.4167    2.5208    0.0000 C   0  0  0  0  0  0  0  0  0  0  0  0
    1.0917    3.7458    0.0000 Br  0  0  0  0  0  0  0  0  0  0  0  0
    6.2917    1.4958    0.0000 C   0  0  0  0  0  0  0  0  0  0  0  0
    5.6417    1.1208    0.0000 C   0  0  0  0  0  0  0  0  0  0  0  0
    4.9917    1.4958    0.0000 C   0  0  0  0  0  0  0  0  0  0  0  0
  2  1  1  0  0  0  0
  3  1  1  0  0  0  0
  4  2  1  0  0  0  0
  5  3  2  0  0  0  0
  5  4  1  0  0  0  0
  6  2  2  0  0  0  0
  6  8  1  0  0  0  0
  7  1  1  0  0  0  0
  8  7  2  0  0  0  0
  9 10  1  0  0  0  0
 10 13  1  0  0  0  0
 11  5  1  0  0  0  0
 12  9  1  0  0  0  0
 13 14  1  0  0  0  0
 14 11  2  0  0  0  0
 15  9  2  0  0  0  0
 16 12  2  0  0  0  0
 17 12  1  0  0  0  0
 18 20  1  0  0  0  0
 18 19  2  0  0  0  0
 19 16  1  0  0  0  0
 20 17  2  0  0  0  0
 21  7  1  0  0  0  0
 22 18  1  0  0  0  0
 23 11  1  0  0  0  0
 24 23  2  0  0  0  0
 25 24  1  0  0  0  0
 25 13  2  0  0  0  0
M  END
>  <ID>
7972548

>  <Supplier>
ChemBridge

>  <clogP>
3.834000000000000e+000

>  <RB>
3

>  <tPSA>
7.218000000000001e+001

>  <Hacc>
4

>  <Hdon>
1

>  <LogSw>
-5.494000000000000e+000

>  <Group>
1

>  <Core>
267

$$$$
7972547
 OpenBabel03312015312D

 34 36  0  0  0  0  0  0  0  0999 V2000
    1.7917    2.7958    0.0000 S   0  0  0  0  0  0  0  0  0  0  0  0
    1.0667    2.6000    0.0000 N   0  0  0  0  0  0  0  0  0  0  0  0
    1.7917    3.5458    0.0000 C   0  0  0  0  0  0  0  0  0  0  0  0
    0.5375    3.1333    0.0000 C   0  0  0  0  0  0  0  0  0  0  0  0
   -0.1875    2.9375    0.0000 C   0  0  0  0  0  0  0  0  0  0  0  0
    2.4417    3.9208    0.0000 C   0  0  0  0  0  0  0  0  0  0  0  0
    1.9250    2.0583    0.0000 O   0  0  0  0  0  0  0  0  0  0  0  0
    2.5417    2.8583    0.0000 O   0  0  0  0  0  0  0  0  0  0  0  0
    2.4417    4.6667    0.0000 C   0  0  0  0  0  0  0  0  0  0  0  0
    0.8750    1.8750    0.0000 C   0  0  0  0  0  0  0  0  0  0  0  0
   -0.7208    3.4708    0.0000 N   0  0  0  0  0  0  0  0  0  0  0  0
   -2.6958    3.6083    0.0000 C   0  0  0  0  0  0  0  0  0  0  0  0
   -3.2250    4.1292    0.0000 C   0  0  0  0  0  0  0  0  0  0  0  0
    1.7917    5.0417    0.0000 C   0  0  0  0  0  0  0  0  0  0  0  0
   -1.9708    3.8083    0.0000 C   0  0  0  0  0  0  0  0  0  0  0  0
    1.1417    3.9208    0.0000 C   0  0  0  0  0  0  0  0  0  0  0  0
   -1.4458    3.2708    0.0000 C   0  0  0  0  0  0  0  0  0  0  0  0
   -0.3833    2.2125    0.0000 O   0  0  0  0  0  0  0  0  0  0  0  0
   -3.9583    3.9458    0.0000 O   0  0  0  0  0  0  0  0  0  0  0  0
    1.1417    4.6667    0.0000 C   0  0  0  0  0  0  0  0  0  0  0  0
    0.1500    1.6833    0.0000 C   0  0  0  0  0  0  0  0  0  0  0  0
    1.4042    1.3458    0.0000 C   0  0  0  0  0  0  0  0  0  0  0  0
    0.4875    0.4250    0.0000 C   0  0  0  0  0  0  0  0  0  0  0  0
    3.0917    5.0417    0.0000 O   0  0  0  0  0  0  0  0  0  0  0  0
    1.2125    0.6208    0.0000 C   0  0  0  0  0  0  0  0  0  0  0  0
   -0.0458    0.9583    0.0000 C   0  0  0  0  0  0  0  0  0  0  0  0
    0.2917   -0.2917    0.0000 Cl  0  0  0  0  0  0  0  0  0  0  0  0
    1.7917    5.7917    0.0000 O   0  0  0  0  0  0  0  0  0  0  0  0
   -2.8958    2.8833    0.0000 C   0  0  0  0  0  0  0  0  0  0  0  0
   -2.3583    2.3583    0.0000 C   0  0  0  0  0  0  0  0  0  0  0  0
   -1.6333    2.5500    0.0000 C   0  0  0  0  0  0  0  0  0  0  0  0
   -3.0333    4.8542    0.0000 C   0  0  0  0  0  0  0  0  0  0  0  0
    3.7417    4.6667    0.0000 C   0  0  0  0  0  0  0  0  0  0  0  0
    1.1417    6.1667    0.0000 C   0  0  0  0  0  0  0  0  0  0  0  0
  2  1  1  0  0  0  0
  3  1  1  0  0  0  0
  4  2  1  0  0  0  0
  5  4  1  0  0  0  0
  6  3  1  0  0  0  0
  7  1  2  0  0  0  0
  8  1  2  0  0  0  0
  9  6  2  0  0  0  0
 10  2  1  0  0  0  0
 11  5  1  0  0  0  0
 12 15  2  0  0  0  0
 12 29  1  0  0  0  0
 13 12  1  0  0  0  0
 14 20  2  0  0  0  0
 14  9  1  0  0  0  0
 15 17  1  0  0  0  0
 16  3  2  0  0  0  0
 17 11  1  0  0  0  0
 18  5  2  0  0  0  0
 19 13  2  0  0  0  0
 20 16  1  0  0  0  0
 21 10  1  0  0  0  0
 22 10  2  0  0  0  0
 23 25  2  0  0  0  0
 23 26  1  0  0  0  0
 24  9  1  0  0  0  0
 25 22  1  0  0  0  0
 26 21  2  0  0  0  0
 27 23  1  0  0  0  0
 28 14  1  0  0  0  0
 29 30  2  0  0  0  0
 30 31  1  0  0  0  0
 31 17  2  0  0  0  0
 32 13  1  0  0  0  0
 33 24  1  0  0  0  0
 34 28  1  0  0  0  0
M  END
>  <ID>
7972547

>  <Supplier>
ChemBridge

>  <clogP>
4.416000000000000e+000

>  <RB>
6

>  <tPSA>
1.020100000000000e+002

>  <Hacc>
6

>  <Hdon>
1

>  <LogSw>
-6.637000000000000e+000

>  <Group>
1

>  <Core>
084

$$$$
7972544
 OpenBabel03312015312D

 25 27  0  0  0  0  0  0  0  0999 V2000
    4.2667    2.2500    0.0000 C   0  0  0  0  0  0  0  0  0  0  0  0
    4.9167    2.6250    0.0000 C   0  0  0  0  0  0  0  0  0  0  0  0
    4.1125    1.5208    0.0000 C   0  0  0  0  0  0  0  0  0  0  0  0
    3.3667    1.4375    0.0000 C   0  0  0  0  0  0  0  0  0  0  0  0
    3.6167    2.6250    0.0000 C   0  0  0  0  0  0  0  0  0  0  0  0
    3.0625    2.1250    0.0000 S   0  0  0  0  0  0  0  0  0  0  0  0
    5.5667    2.2500    0.0000 S   0  0  0  0  0  0  0  0  0  0  0  0
    6.8667    2.2500    0.0000 C   0  0  0  0  0  0  0  0  0  0  0  0
    4.9167    3.3750    0.0000 N   0  0  0  0  0  0  0  0  0  0  0  0
    3.6167    3.3750    0.0000 N   0  0  0  0  0  0  0  0  0  0  0  0
    6.2167    2.6250    0.0000 C   0  0  3  0  0  0  0  0  0  0  0  0
    4.6167    0.9583    0.0000 C   0  0  0  0  0  0  0  0  0  0  0  0
    4.2667    3.7500    0.0000 C   0  0  0  0  0  0  0  0  0  0  0  0
    7.5167    2.6250    0.0000 O   0  0  0  0  0  0  0  0  0  0  0  0
    6.8667    1.5000    0.0000 O   0  0  0  0  0  0  0  0  0  0  0  0
    4.3792    0.2458    0.0000 C   0  0  0  0  0  0  0  0  0  0  0  0
    5.3500    1.1208    0.0000 C   0  0  0  0  0  0  0  0  0  0  0  0
    5.6167   -0.1542    0.0000 C   0  0  0  0  0  0  0  0  0  0  0  0
    5.8500    0.5583    0.0000 C   0  0  0  0  0  0  0  0  0  0  0  0
    4.8875   -0.3125    0.0000 C   0  0  0  0  0  0  0  0  0  0  0  0
    6.1167   -0.7125    0.0000 Br  0  0  0  0  0  0  0  0  0  0  0  0
    8.1667    2.2500    0.0000 C   0  0  0  0  0  0  0  0  0  0  0  0
    6.2167    3.3750    0.0000 C   0  0  0  0  0  0  0  0  0  0  0  0
    8.8167    2.6250    0.0000 C   0  0  0  0  0  0  0  0  0  0  0  0
    8.1667    1.5000    0.0000 C   0  0  0  0  0  0  0  0  0  0  0  0
  2  1  1  0  0  0  0
  3  1  1  0  0  0  0
  4  3  2  0  0  0  0
  4  6  1  0  0  0  0
  5  1  2  0  0  0  0
  6  5  1  0  0  0  0
  7  2  1  0  0  0  0
  8 11  1  0  0  0  0
  9  2  2  0  0  0  0
 10  5  1  0  0  0  0
 11  7  1  0  0  0  0
 12  3  1  0  0  0  0
 13 10  2  0  0  0  0
 13  9  1  0  0  0  0
 14  8  1  0  0  0  0
 15  8  2  0  0  0  0
 16 12  2  0  0  0  0
 17 12  1  0  0  0  0
 18 19  1  0  0  0  0
 18 20  2  0  0  0  0
 19 17  2  0  0  0  0
 20 16  1  0  0  0  0
 21 18  1  0  0  0  0
 22 14  1  0  0  0  0
 23 11  1  0  0  0  0
 24 22  1  0  0  0  0
 25 22  1  0  0  0  0
M  END
>  <ID>
7972544

>  <Supplier>
ChemBridge

>  <clogP>
5.990000000000000e+000

>  <RB>
5

>  <tPSA>
5.208000000000000e+001

>  <Hacc>
4

>  <Hdon>
0

>  <LogSw>
-7.504000000000000e+000

>  <Group>
2

>  <Core>
024

$$$$
7972543
 OpenBabel03312015312D

 32 35  0  0  0  0  0  0  0  0999 V2000
    6.7417    2.3333    0.0000 N   0  0  0  0  0  0  0  0  0  0  0  0
    7.1875    2.9333    0.0000 C   0  0  0  0  0  0  0  0  0  0  0  0
    4.8917    0.9333    0.0000 C   0  0  0  0  0  0  0  0  0  0  0  0
    6.0292    2.5583    0.0000 C   0  0  0  0  0  0  0  0  0  0  0  0
    6.7417    3.5458    0.0000 N   0  0  0  0  0  0  0  0  0  0  0  0
    5.5042    1.3708    0.0000 N   0  0  0  0  0  0  0  0  0  0  0  0
    4.2125    1.2333    0.0000 C   0  0  0  0  0  0  0  0  0  0  0  0
    6.0292    3.3083    0.0000 O   0  0  0  0  0  0  0  0  0  0  0  0
    5.4250    2.1208    0.0000 C   0  0  0  0  0  0  0  0  0  0  0  0
    3.7375    0.6500    0.0000 O   0  0  0  0  0  0  0  0  0  0  0  0
    4.9750    0.1833    0.0000 O   0  0  0  0  0  0  0  0  0  0  0  0
    7.9375    2.9333    0.0000 C   0  0  0  0  0  0  0  0  0  0  0  0
    6.1875    1.0708    0.0000 C   0  0  0  0  0  0  0  0  0  0  0  0
    3.0000    0.7708    0.0000 C   0  0  0  0  0  0  0  0  0  0  0  0
    1.5167    1.0083    0.0000 C   0  0  0  0  0  0  0  0  0  0  0  0
    0.7750    1.1208    0.0000 Cl  0  0  0  0  0  0  0  0  0  0  0  0
    2.5250    0.1875    0.0000 C   0  0  0  0  0  0  0  0  0  0  0  0
    2.7292    1.4708    0.0000 C   0  0  0  0  0  0  0  0  0  0  0  0
    1.9875    1.5875    0.0000 C   0  0  0  0  0  0  0  0  0  0  0  0
    1.7875    0.3083    0.0000 C   0  0  0  0  0  0  0  0  0  0  0  0
    4.5750    1.8958    0.0000 C   0  0  0  0  0  0  0  0  0  0  0  0
    3.5875    1.6583    0.0000 C   0  0  0  0  0  0  0  0  0  0  0  0
    8.3125    2.2833    0.0000 C   0  0  0  0  0  0  0  0  0  0  0  0
    8.3125    3.5833    0.0000 C   0  0  0  0  0  0  0  0  0  0  0  0
    6.2667    0.3208    0.0000 C   0  0  0  0  0  0  0  0  0  0  0  0
    6.7917    1.5083    0.0000 C   0  0  0  0  0  0  0  0  0  0  0  0
    9.0625    3.5833    0.0000 C   0  0  0  0  0  0  0  0  0  0  0  0
    9.0625    2.2833    0.0000 C   0  0  0  0  0  0  0  0  0  0  0  0
    6.9500    0.0208    0.0000 C   0  0  0  0  0  0  0  0  0  0  0  0
    7.4792    1.2000    0.0000 C   0  0  0  0  0  0  0  0  0  0  0  0
    9.4375    2.9333    0.0000 C   0  0  0  0  0  0  0  0  0  0  0  0
    7.5542    0.4583    0.0000 C   0  0  0  0  0  0  0  0  0  0  0  0
  2  1  1  0  0  0  0
  3  6  1  0  0  0  0
  4  1  2  0  0  0  0
  5  2  2  0  0  0  0
  6  9  1  0  0  0  0
  7  3  1  0  0  0  0
  8  4  1  0  0  0  0
  8  5  1  0  0  0  0
  9  4  1  0  0  0  0
 10  7  1  0  0  0  0
 11  3  2  0  0  0  0
 12  2  1  0  0  0  0
 13  6  1  0  0  0  0
 14 10  1  0  0  0  0
 15 19  1  0  0  0  0
 16 15  1  0  0  0  0
 17 14  2  0  0  0  0
 18 14  1  0  0  0  0
 19 18  2  0  0  0  0
 20 17  1  0  0  0  0
 20 15  2  0  0  0  0
 21  7  1  0  0  0  0
 22  7  1  0  0  0  0
 23 12  2  0  0  0  0
 24 12  1  0  0  0  0
 25 13  1  0  0  0  0
 26 13  1  0  0  0  0
 27 24  2  0  0  0  0
 28 23  1  0  0  0  0
 28 31  2  0  0  0  0
 29 25  1  0  0  0  0
 29 32  1  0  0  0  0
 30 26  1  0  0  0  0
 31 27  1  0  0  0  0
 32 30  1  0  0  0  0
M  END
>  <ID>
7972543

>  <Supplier>
ChemBridge

>  <clogP>
5.908000000000000e+000

>  <RB>
7

>  <tPSA>
6.845999999999998e+001

>  <Hacc>
5

>  <Hdon>
0

>  <LogSw>
-7.553999999999999e+000

>  <Group>
1

>  <Core>
204

$$$$
7102707
 OpenBabel03312015312D

 25 28  0  0  0  0  0  0  0  0999 V2000
    3.0417   -0.5917    0.0000 N   0  0  0  0  0  0  0  0  0  0  0  0
    2.7792   -1.3792    0.0000 C   0  0  0  0  0  0  0  0  0  0  0  0
    2.3667   -0.1042    0.0000 C   0  0  0  0  0  0  0  0  0  0  0  0
    1.7042   -0.5917    0.0000 C   0  0  0  0  0  0  0  0  0  0  0  0
    1.9542   -1.3792    0.0000 S   0  0  0  0  0  0  0  0  0  0  0  0
    0.3042   -0.8917    0.0000 C   0  0  0  0  0  0  0  0  0  0  0  0
    0.9250   -0.3375    0.0000 C   0  0  0  0  0  0  0  0  0  0  0  0
   -0.5000   -0.7167    0.0000 C   0  0  0  0  0  0  0  0  0  0  0  0
   -0.9208   -1.4292    0.0000 N   0  0  0  0  0  0  0  0  0  0  0  0
   -0.3708   -2.0500    0.0000 N   0  0  0  0  0  0  0  0  0  0  0  0
    3.8292   -0.3375    0.0000 C   0  0  0  0  0  0  0  0  0  0  0  0
    3.2667   -2.0417    0.0000 S   0  0  0  0  0  0  0  0  0  0  0  0
    0.3917   -1.7125    0.0000 C   0  0  0  0  0  0  0  0  0  0  0  0
    2.3667    0.7208    0.0000 O   0  0  0  0  0  0  0  0  0  0  0  0
   -0.8375    0.0458    0.0000 C   0  0  0  0  0  0  0  0  0  0  0  0
    4.3500   -1.7042    0.0000 O   0  0  0  0  0  0  0  0  0  0  0  0
    4.4375   -0.8917    0.0000 C   0  0  3  0  0  0  0  0  0  0  0  0
    5.1042   -2.0417    0.0000 C   0  0  0  0  0  0  0  0  0  0  0  0
   -1.6625    0.1333    0.0000 C   0  0  0  0  0  0  0  0  0  0  0  0
   -0.3500    0.7208    0.0000 C   0  0  0  0  0  0  0  0  0  0  0  0
    5.2417   -0.7167    0.0000 C   0  0  0  0  0  0  0  0  0  0  0  0
    5.6542   -1.4292    0.0000 C   0  0  0  0  0  0  0  0  0  0  0  0
   -2.0000    0.8875    0.0000 C   0  0  0  0  0  0  0  0  0  0  0  0
   -0.6875    1.4708    0.0000 C   0  0  0  0  0  0  0  0  0  0  0  0
   -1.5083    1.5583    0.0000 C   0  0  0  0  0  0  0  0  0  0  0  0
  2  1  1  0  0  0  0
  3  1  1  0  0  0  0
  4  3  1  0  0  0  0
  4  5  1  0  0  0  0
  5  2  1  0  0  0  0
  6  7  1  0  0  0  0
  7  4  2  0  0  0  0
  8  6  1  0  0  0  0
  9  8  2  0  0  0  0
 10 13  1  0  0  0  0
 10  9  1  0  0  0  0
 11  1  1  0  0  0  0
 12  2  2  0  0  0  0
 13  6  2  0  0  0  0
 14  3  2  0  0  0  0
 15  8  1  0  0  0  0
 16 17  1  0  0  0  0
 17 11  1  0  0  0  0
 18 16  1  0  0  0  0
 18 22  1  0  0  0  0
 19 15  2  0  0  0  0
 20 15  1  0  0  0  0
 21 17  1  0  0  0  0
 22 21  1  0  0  0  0
 23 19  1  0  0  0  0
 23 25  2  0  0  0  0
 24 20  2  0  0  0  0
 25 24  1  0  0  0  0
M  END
>  <ID>
7102707

>  <Supplier>
ChemBridge

>  <clogP>
2.550000000000000e+000

>  <RB>
4

>  <tPSA>
5.821999999999999e+001

>  <Hacc>
3

>  <Hdon>
1

>  <LogSw>
-4.086000000000000e+000

>  <Group>
2

>  <Core>
001

$$$$
7102704
 OpenBabel03312015312D

 30 33  0  0  0  0  0  0  0  0999 V2000
    5.4417   -2.3375    0.0000 C   0  0  0  0  0  0  0  0  0  0  0  0
    4.7250   -1.9250    0.0000 C   0  0  0  0  0  0  0  0  0  0  0  0
    6.1667   -1.0917    0.0000 C   0  0  0  0  0  0  0  0  0  0  0  0
    6.1667   -1.9292    0.0000 C   0  0  0  0  0  0  0  0  0  0  0  0
    4.7292   -1.0917    0.0000 C   0  0  0  0  0  0  0  0  0  0  0  0
    5.4417   -0.6667    0.0000 O   0  0  0  0  0  0  0  0  0  0  0  0
    4.0125   -2.3292    0.0000 C   0  0  0  0  0  0  0  0  0  0  0  0
    4.0167   -3.1542    0.0000 O   0  0  0  0  0  0  0  0  0  0  0  0
    4.0125   -0.6792    0.0000 C   0  0  0  0  0  0  0  0  0  0  0  0
    2.5792   -3.1542    0.0000 C   0  0  0  0  0  0  0  0  0  0  0  0
    3.3000   -1.9167    0.0000 C   0  0  0  0  0  0  0  0  0  0  0  0
    6.8792   -0.6792    0.0000 O   0  0  0  0  0  0  0  0  0  0  0  0
    1.8667   -3.5625    0.0000 C   0  0  0  0  0  0  0  0  0  0  0  0
    0.4292   -4.3792    0.0000 C   0  0  0  0  0  0  0  0  0  0  0  0
    3.3000   -3.5667    0.0000 C   0  0  0  0  0  0  0  0  0  0  0  0
    3.3000   -1.0917    0.0000 C   0  0  0  0  0  0  0  0  0  0  0  0
    2.5875   -2.3250    0.0000 O   0  0  0  0  0  0  0  0  0  0  0  0
    1.1542   -3.1500    0.0000 C   0  0  0  0  0  0  0  0  0  0  0  0
    1.8625   -4.3917    0.0000 C   0  0  0  0  0  0  0  0  0  0  0  0
    0.4375   -3.5542    0.0000 C   0  0  0  0  0  0  0  0  0  0  0  0
    1.1417   -4.8042    0.0000 C   0  0  0  0  0  0  0  0  0  0  0  0
   -0.2875   -4.7917    0.0000 C   0  0  0  0  0  0  0  0  0  0  0  0
    5.4417   -3.1542    0.0000 C   0  0  0  0  0  0  0  0  0  0  0  0
    6.8750   -2.3375    0.0000 C   0  0  0  0  0  0  0  0  0  0  0  0
    2.5875   -0.6792    0.0000 C   0  0  0  0  0  0  0  0  0  0  0  0
   -0.9958   -4.3667    0.0000 C   0  0  0  0  0  0  0  0  0  0  0  0
   -0.2875   -5.6125    0.0000 C   0  0  0  0  0  0  0  0  0  0  0  0
   -1.0000   -6.0167    0.0000 C   0  0  0  0  0  0  0  0  0  0  0  0
   -1.7125   -4.7792    0.0000 C   0  0  0  0  0  0  0  0  0  0  0  0
   -1.7208   -5.6042    0.0000 C   0  0  0  0  0  0  0  0  0  0  0  0
  2  1  1  0  0  0  0
  3  4  1  0  0  0  0
  4  1  2  0  0  0  0
  5  2  1  0  0  0  0
  5  6  1  0  0  0  0
  6  3  1  0  0  0  0
  7  2  2  0  0  0  0
  8  7  1  0  0  0  0
  9  5  2  0  0  0  0
  9 16  1  0  0  0  0
 10 15  1  0  0  0  0
 11  7  1  0  0  0  0
 12  3  2  0  0  0  0
 13 10  1  0  0  0  0
 14 21  1  0  0  0  0
 15  8  1  0  0  0  0
 16 11  2  0  0  0  0
 17 10  2  0  0  0  0
 18 13  2  0  0  0  0
 19 13  1  0  0  0  0
 20 18  1  0  0  0  0
 20 14  2  0  0  0  0
 21 19  2  0  0  0  0
 22 14  1  0  0  0  0
 23  1  1  0  0  0  0
 24  4  1  0  0  0  0
 25 16  1  0  0  0  0
 26 22  2  0  0  0  0
 27 22  1  0  0  0  0
 28 27  2  0  0  0  0
 29 26  1  0  0  0  0
 29 30  2  0  0  0  0
 30 28  1  0  0  0  0
M  END
>  <ID>
7102704

>  <Supplier>
ChemBridge

>  <clogP>
6.030000000000000e+000

>  <RB>
5

>  <tPSA>
5.651000000000000e+001

>  <Hacc>
4

>  <Hdon>
0

>  <LogSw>
-7.254000000000000e+000

>  <Group>
1

>  <Core>
076

$$$$
6444165
 OpenBabel03312015312D

 24 25  0  0  0  0  0  0  0  0999 V2000
   -4.2333    1.4958    0.0000 C   0  0  0  0  0  0  0  0  0  0  0  0
   -4.2333    0.8208    0.0000 C   0  0  0  0  0  0  0  0  0  0  0  0
   -3.6625    1.8333    0.0000 C   0  0  0  0  0  0  0  0  0  0  0  0
    2.4875    1.6333    0.0000 C   0  0  0  0  0  0  0  0  0  0  0  0
   -3.6625    0.4833    0.0000 C   0  0  0  0  0  0  0  0  0  0  0  0
   -3.0833    1.4958    0.0000 C   0  0  0  0  0  0  0  0  0  0  0  0
    3.0667    1.1000    0.0000 C   0  0  0  0  0  0  0  0  0  0  0  0
    1.7500    1.3958    0.0000 C   0  0  0  0  0  0  0  0  0  0  0  0
   -4.6625    0.5708    0.0000 Cl  0  0  0  0  0  0  0  0  0  0  0  0
   -3.0833    0.8208    0.0000 C   0  0  0  0  0  0  0  0  0  0  0  0
   -2.3625    1.8708    0.0000 O   0  0  0  0  0  0  0  0  0  0  0  0
    3.4792    1.2833    0.0000 O   0  0  0  0  0  0  0  0  0  0  0  0
    1.3292    1.7708    0.0000 O   0  0  0  0  0  0  0  0  0  0  0  0
   -0.4333    1.4458    0.0000 O   0  0  0  0  0  0  0  0  0  0  0  0
    2.1542    0.1125    0.0000 C   0  0  0  0  0  0  0  0  0  0  0  0
   -4.6833    1.7000    0.0000 C   0  0  0  0  0  0  0  0  0  0  0  0
    2.9000    0.3500    0.0000 C   0  0  0  0  0  0  0  0  0  0  0  0
    1.5875    0.6333    0.0000 C   0  0  0  0  0  0  0  0  0  0  0  0
   -1.6625    1.4458    0.0000 C   0  0  0  0  0  0  0  0  0  0  0  0
    0.6792    1.5625    0.0000 C   0  0  0  0  0  0  0  0  0  0  0  0
    3.9167    0.9125    0.0000 C   0  0  0  0  0  0  0  0  0  0  0  0
   -0.8625    1.8958    0.0000 C   0  0  0  0  0  0  0  0  0  0  0  0
    0.2542    1.9333    0.0000 C   0  0  0  0  0  0  0  0  0  0  0  0
    4.4792    1.1333    0.0000 C   0  0  0  0  0  0  0  0  0  0  0  0
  2  1  1  0  0  0  0
  3  1  2  0  0  0  0
  4  8  1  0  0  0  0
  5  2  2  0  0  0  0
  6  3  1  0  0  0  0
  7  4  2  0  0  0  0
  7 17  1  0  0  0  0
  8 13  1  0  0  0  0
  9  2  1  0  0  0  0
 10  6  2  0  0  0  0
 10  5  1  0  0  0  0
 11  6  1  0  0  0  0
 12  7  1  0  0  0  0
 13 20  1  0  0  0  0
 14 22  1  0  0  0  0
 15 18  1  0  0  0  0
 16  1  1  0  0  0  0
 17 15  2  0  0  0  0
 18  8  2  0  0  0  0
 19 11  1  0  0  0  0
 20 23  1  0  0  0  0
 21 12  1  0  0  0  0
 22 19  1  0  0  0  0
 23 14  1  0  0  0  0
 24 21  1  0  0  0  0
M  END
>  <ID>
6444165

>  <Supplier>
ChemBridge

>  <clogP>
5.780000000000000e+000

>  <RB>
8

>  <tPSA>
3.692000000000000e+001

>  <Hacc>
4

>  <Hdon>
0

>  <LogSw>
-6.693999999999998e+000

>  <Group>
1

>  <Core>
317

$$$$
5417032
 OpenBabel03312015312D

 25 27  0  0  0  0  0  0  0  0999 V2000
    2.8042    1.8125    0.0000 C   0  0  0  0  0  0  0  0  0  0  0  0
   -1.2708    1.8125    0.0000 N   0  0  0  0  0  0  0  0  0  0  0  0
   -2.6333    1.0208    0.0000 N   0  0  0  0  0  0  0  0  0  0  0  0
    2.1292    2.2083    0.0000 C   0  0  0  0  0  0  0  0  0  0  0  0
   -0.5958    2.2125    0.0000 C   0  0  3  0  0  0  0  0  0  0  0  0
   -1.9500    2.2083    0.0000 C   0  0  0  0  0  0  0  0  0  0  0  0
   -1.2708    1.0208    0.0000 C   0  0  0  0  0  0  0  0  0  0  0  0
   -1.9500    0.6208    0.0000 C   0  0  0  0  0  0  0  0  0  0  0  0
   -2.6333    1.8125    0.0000 C   0  0  0  0  0  0  0  0  0  0  0  0
    1.4500    1.8000    0.0000 C   0  0  0  0  0  0  0  0  0  0  0  0
   -3.3208    0.6458    0.0000 C   0  0  0  0  0  0  0  0  0  0  0  0
    0.0875    1.8125    0.0000 C   0  0  0  0  0  0  0  0  0  0  0  0
    0.7667    2.2083    0.0000 C   0  0  0  0  0  0  0  0  0  0  0  0
    3.4792    1.4333    0.0000 F   0  0  0  0  0  0  0  0  0  0  0  0
    3.2000    2.4958    0.0000 F   0  0  0  0  0  0  0  0  0  0  0  0
    2.4167    1.1333    0.0000 F   0  0  0  0  0  0  0  0  0  0  0  0
    2.1292    2.9958    0.0000 C   0  0  0  0  0  0  0  0  0  0  0  0
    1.4500    3.3833    0.0000 C   0  0  0  0  0  0  0  0  0  0  0  0
    0.7667    2.9958    0.0000 C   0  0  0  0  0  0  0  0  0  0  0  0
   -0.5958    2.9958    0.0000 C   0  0  0  0  0  0  0  0  0  0  0  0
   -4.0000    1.0458    0.0000 C   0  0  0  0  0  0  0  0  0  0  0  0
   -3.3208   -0.1542    0.0000 C   0  0  0  0  0  0  0  0  0  0  0  0
   -4.0000   -0.5375    0.0000 C   0  0  0  0  0  0  0  0  0  0  0  0
   -4.6833    0.6458    0.0000 C   0  0  0  0  0  0  0  0  0  0  0  0
   -4.6833   -0.1500    0.0000 C   0  0  0  0  0  0  0  0  0  0  0  0
  2  5  1  0  0  0  0
  3  8  1  0  0  0  0
  3  9  1  0  0  0  0
  4  1  1  0  0  0  0
  5 12  1  0  0  0  0
  6  2  1  0  0  0  0
  7  2  1  0  0  0  0
  8  7  1  0  0  0  0
  9  6  1  0  0  0  0
 10  4  2  0  0  0  0
 11  3  1  0  0  0  0
 12 13  1  0  0  0  0
 13 10  1  0  0  0  0
 14  1  1  0  0  0  0
 15  1  1  0  0  0  0
 16  1  1  0  0  0  0
 17  4  1  0  0  0  0
 18 17  2  0  0  0  0
 19 18  1  0  0  0  0
 19 13  2  0  0  0  0
 20  5  1  0  0  0  0
 21 11  1  0  0  0  0
 22 11  2  0  0  0  0
 23 22  1  0  0  0  0
 24 21  2  0  0  0  0
 25 23  2  0  0  0  0
 25 24  1  0  0  0  0
M  END
>  <ID>
5417032

>  <Supplier>
ChemBridge

>  <clogP>
4.830000000000000e+000

>  <RB>
4

>  <tPSA>
6.480000000000000e+000

>  <Hacc>
1

>  <Hdon>
0

>  <LogSw>
-4.856999999999998e+000

>  <Group>
2

>  <Core>
162

$$$$
5326065
 OpenBabel03312015312D

 29 32  0  0  0  0  0  0  0  0999 V2000
   -1.3333   -0.9542    0.0000 C   0  0  0  0  0  0  0  0  0  0  0  0
   -1.0125   -1.6292    0.0000 C   0  0  0  0  0  0  0  0  0  0  0  0
   -0.9958   -0.3042    0.0000 C   0  0  3  0  0  0  0  0  0  0  0  0
   -3.6458   -0.2500    0.0000 N   0  3  0  0  0  0  0  0  0  0  0  0
   -2.0708   -0.9000    0.0000 C   0  0  0  0  0  0  0  0  0  0  0  0
   -0.3000   -1.8167    0.0000 N   0  0  0  0  0  0  0  0  0  0  0  0
   -0.2958   -0.1500    0.0000 N   0  0  0  0  0  0  0  0  0  0  0  0
   -1.5000    0.2458    0.0000 C   0  0  0  0  0  0  0  0  0  0  0  0
   -3.4458    0.4500    0.0000 C   0  0  0  0  0  0  0  0  0  0  0  0
    0.2875   -1.3500    0.0000 C   0  0  0  0  0  0  0  0  0  0  0  0
    0.3042   -0.6042    0.0000 C   0  0  0  0  0  0  0  0  0  0  0  0
   -2.2125    0.0708    0.0000 C   0  0  0  0  0  0  0  0  0  0  0  0
   -1.4333   -2.2375    0.0000 C   0  0  0  0  0  0  0  0  0  0  0  0
   -2.1833   -2.1792    0.0000 C   0  0  0  0  0  0  0  0  0  0  0  0
   -2.4958   -1.5042    0.0000 C   0  0  0  0  0  0  0  0  0  0  0  0
   -4.3458   -0.4875    0.0000 O   0  5  0  0  0  0  0  0  0  0  0  0
   -3.1708   -0.8167    0.0000 O   0  0  0  0  0  0  0  0  0  0  0  0
   -2.7333    0.6125    0.0000 C   0  0  0  0  0  0  0  0  0  0  0  0
   -2.4125   -0.2167    0.0000 O   0  0  0  0  0  0  0  0  0  0  0  0
   -3.9583    0.9833    0.0000 C   0  0  0  0  0  0  0  0  0  0  0  0
   -2.1000   -2.9042    0.0000 C   0  0  0  0  0  0  0  0  0  0  0  0
   -2.7708   -2.6042    0.0000 C   0  0  0  0  0  0  0  0  0  0  0  0
    0.9500   -0.2375    0.0000 C   0  0  0  0  0  0  0  0  0  0  0  0
    0.9500   -1.7292    0.0000 C   0  0  0  0  0  0  0  0  0  0  0  0
   -2.5208    1.3333    0.0000 C   0  0  0  0  0  0  0  0  0  0  0  0
   -3.7458    1.6833    0.0000 C   0  0  0  0  0  0  0  0  0  0  0  0
    1.5875   -1.3500    0.0000 C   0  0  0  0  0  0  0  0  0  0  0  0
    1.5875   -0.6000    0.0000 C   0  0  0  0  0  0  0  0  0  0  0  0
   -3.0333    1.8625    0.0000 C   0  0  0  0  0  0  0  0  0  0  0  0
  2  1  2  0  0  0  0
  3  1  1  0  0  0  0
  4  9  1  0  0  0  0
  5  1  1  0  0  0  0
  6  2  1  0  0  0  0
  7  3  1  0  0  0  0
  8  3  1  0  0  0  0
  9 18  1  0  0  0  0
 10  6  1  0  0  0  0
 11  7  1  0  0  0  0
 11 10  2  0  0  0  0
 12  8  2  0  0  0  0
 13  2  1  0  0  0  0
 13 14  1  0  0  0  0
 14 15  1  0  0  0  0
 15  5  1  0  0  0  0
 16  4  1  0  0  0  0
 17  4  2  0  0  0  0
 18 12  1  0  0  0  0
 19  5  2  0  0  0  0
 20  9  2  0  0  0  0
 21 14  1  0  0  0  0
 22 14  1  0  0  0  0
 23 11  1  0  0  0  0
 24 10  1  0  0  0  0
 25 18  2  0  0  0  0
 26 29  2  0  0  0  0
 26 20  1  0  0  0  0
 27 24  2  0  0  0  0
 28 23  2  0  0  0  0
 28 27  1  0  0  0  0
 29 25  1  0  0  0  0
M  CHG  2   4   1  16  -1
M  END
>  <ID>
5326065

>  <Supplier>
ChemBridge

>  <clogP>
4.240000000000000e+000

>  <RB>
2

>  <tPSA>
8.427000000000000e+001

>  <Hacc>
3

>  <Hdon>
2

>  <LogSw>
-6.050000000000000e+000

>  <Group>
3

>  <Core>
102

$$$$
9007740
 OpenBabel03312015312D

 22 23  0  0  0  0  0  0  0  0999 V2000
    5.8417    1.0750    0.0000 C   0  0  0  0  0  0  0  0  0  0  0  0
    8.0917    2.3750    0.0000 C   0  0  0  0  0  0  0  0  0  0  0  0
    6.2167    1.7250    0.0000 C   0  0  0  0  0  0  0  0  0  0  0  0
    6.9667    1.7250    0.0000 O   0  0  0  0  0  0  0  0  0  0  0  0
    5.0917    1.0750    0.0000 C   0  0  0  0  0  0  0  0  0  0  0  0
    3.5917    1.0750    0.0000 N   0  0  0  0  0  0  0  0  0  0  0  0
    8.4667    3.0250    0.0000 O   0  0  0  0  0  0  0  0  0  0  0  0
    5.8417    2.3750    0.0000 C   0  0  0  0  0  0  0  0  0  0  0  0
    7.3417    2.3750    0.0000 C   0  0  0  0  0  0  0  0  0  0  0  0
    4.7167    1.7250    0.0000 C   0  0  0  0  0  0  0  0  0  0  0  0
    2.8417    1.0750    0.0000 C   0  0  0  0  0  0  0  0  0  0  0  0
    8.4667    1.7250    0.0000 N   0  0  0  0  0  0  0  0  0  0  0  0
    6.2167    0.4250    0.0000 Cl  0  0  0  0  0  0  0  0  0  0  0  0
    3.9667    1.7250    0.0000 C   0  0  0  0  0  0  0  0  0  0  0  0
    1.3417    1.0750    0.0000 C   0  0  0  0  0  0  0  0  0  0  0  0
    5.0917    2.3750    0.0000 C   0  0  0  0  0  0  0  0  0  0  0  0
    2.4667    0.4250    0.0000 C   0  0  0  0  0  0  0  0  0  0  0  0
    2.4667    1.7250    0.0000 C   0  0  0  0  0  0  0  0  0  0  0  0
    1.7167    0.4250    0.0000 C   0  0  0  0  0  0  0  0  0  0  0  0
    1.7167    1.7250    0.0000 C   0  0  0  0  0  0  0  0  0  0  0  0
    0.5917    1.0750    0.0000 O   0  0  0  0  0  0  0  0  0  0  0  0
    0.2167    1.7250    0.0000 C   0  0  0  0  0  0  0  0  0  0  0  0
  2  9  1  0  0  0  0
  3  1  2  0  0  0  0
  4  3  1  0  0  0  0
  5  1  1  0  0  0  0
  6 14  1  0  0  0  0
  7  2  2  0  0  0  0
  8  3  1  0  0  0  0
  9  4  1  0  0  0  0
 10  5  2  0  0  0  0
 11  6  1  0  0  0  0
 12  2  1  0  0  0  0
 13  1  1  0  0  0  0
 14 10  1  0  0  0  0
 15 20  1  0  0  0  0
 15 19  2  0  0  0  0
 16 10  1  0  0  0  0
 16  8  2  0  0  0  0
 17 11  2  0  0  0  0
 18 11  1  0  0  0  0
 19 17  1  0  0  0  0
 20 18  2  0  0  0  0
 21 15  1  0  0  0  0
 22 21  1  0  0  0  0
M  END
>  <ID>
9007740

>  <Supplier>
ChemBridge

>  <clogP>
2.230000000000000e+000

>  <RB>
6

>  <tPSA>
7.358000000000000e+001

>  <Hacc>
3

>  <Hdon>
2

>  <LogSw>
-3.444000000000000e+000

>  <Group>
2

>  <Core>
315

$$$$
9007741
 OpenBabel03312015312D

 20 21  0  0  0  0  0  0  0  0999 V2000
    1.9667    1.6083    0.0000 N   0  0  0  0  0  0  0  0  0  0  0  0
    1.3167    1.2333    0.0000 C   0  0  0  0  0  0  0  0  0  0  0  0
    1.9667    0.1083    0.0000 N   0  0  0  0  0  0  0  0  0  0  0  0
    2.6167    1.2333    0.0000 C   0  0  0  0  0  0  0  0  0  0  0  0
    2.6167    0.4833    0.0000 N   0  0  0  0  0  0  0  0  0  0  0  0
    1.3167    0.4833    0.0000 C   0  0  0  0  0  0  0  0  0  0  0  0
    4.5667    1.6083    0.0000 C   0  0  0  0  0  0  0  0  0  0  0  0
    5.2167    1.2333    0.0000 N   0  0  0  0  0  0  0  0  0  0  0  0
    3.2667    1.6083    0.0000 S   0  0  0  0  0  0  0  0  0  0  0  0
    0.6667    1.6083    0.0000 O   0  0  0  0  0  0  0  0  0  0  0  0
    5.8667    1.6083    0.0000 C   0  0  0  0  0  0  0  0  0  0  0  0
    6.5167    1.2333    0.0000 C   0  0  0  0  0  0  0  0  0  0  0  0
    4.5667    2.3583    0.0000 O   0  0  0  0  0  0  0  0  0  0  0  0
    3.9167    1.2333    0.0000 C   0  0  0  0  0  0  0  0  0  0  0  0
    7.1667    1.6083    0.0000 C   0  0  0  0  0  0  0  0  0  0  0  0
    7.8167    1.2333    0.0000 Cl  0  0  0  0  0  0  0  0  0  0  0  0
    0.6667    0.1083    0.0000 C   0  0  0  0  0  0  0  0  0  0  0  0
    6.5167    2.7333    0.0000 C   0  0  0  0  0  0  0  0  0  0  0  0
    5.8667    2.3583    0.0000 C   0  0  0  0  0  0  0  0  0  0  0  0
    7.1667    2.3583    0.0000 C   0  0  0  0  0  0  0  0  0  0  0  0
  2  1  1  0  0  0  0
  3  5  1  0  0  0  0
  3  6  2  0  0  0  0
  4  1  1  0  0  0  0
  5  4  2  0  0  0  0
  6  2  1  0  0  0  0
  7 14  1  0  0  0  0
  8  7  1  0  0  0  0
  9  4  1  0  0  0  0
 10  2  2  0  0  0  0
 11  8  1  0  0  0  0
 12 11  2  0  0  0  0
 13  7  2  0  0  0  0
 14  9  1  0  0  0  0
 15 12  1  0  0  0  0
 16 15  1  0  0  0  0
 17  6  1  0  0  0  0
 18 19  2  0  0  0  0
 19 11  1  0  0  0  0
 20 18  1  0  0  0  0
 20 15  2  0  0  0  0
M  END
>  <ID>
9007741

>  <Supplier>
ChemBridge

>  <clogP>
6.700000000000000e-001

>  <RB>
4

>  <tPSA>
8.774000000000000e+001

>  <Hacc>
4

>  <Hdon>
2

>  <LogSw>
-2.039000000000000e+000

>  <Group>
3

$$$$
9007742
 OpenBabel03312015312D

 23 25  0  0  0  0  0  0  0  0999 V2000
    5.8667    1.8333    0.0000 N   0  0  0  0  0  0  0  0  0  0  0  0
    5.4292    2.4333    0.0000 C   0  0  0  0  0  0  0  0  0  0  0  0
    5.4292    1.2208    0.0000 C   0  0  0  0  0  0  0  0  0  0  0  0
    4.7125    1.4583    0.0000 C   0  0  3  0  0  0  0  0  0  0  0  0
    4.7125    2.2083    0.0000 C   0  0  0  0  0  0  0  0  0  0  0  0
    4.1042    1.0125    0.0000 N   0  0  0  0  0  0  0  0  0  0  0  0
    6.6167    1.8333    0.0000 C   0  0  0  0  0  0  0  0  0  0  0  0
    5.6542    3.1458    0.0000 O   0  0  0  0  0  0  0  0  0  0  0  0
    5.6542    0.5083    0.0000 O   0  0  0  0  0  0  0  0  0  0  0  0
    2.0500    1.9250    0.0000 C   0  0  0  0  0  0  0  0  0  0  0  0
    1.3667    2.2333    0.0000 N   0  0  0  0  0  0  0  0  0  0  0  0
    3.4167    1.3208    0.0000 C   0  0  0  0  0  0  0  0  0  0  0  0
    2.1292    1.1833    0.0000 C   0  0  0  0  0  0  0  0  0  0  0  0
    2.6542    2.3708    0.0000 C   0  0  0  0  0  0  0  0  0  0  0  0
    2.8167    0.8750    0.0000 C   0  0  0  0  0  0  0  0  0  0  0  0
    3.3417    2.0625    0.0000 C   0  0  0  0  0  0  0  0  0  0  0  0
    1.2875    2.9833    0.0000 C   0  0  0  0  0  0  0  0  0  0  0  0
    0.7542    1.7958    0.0000 C   0  0  0  0  0  0  0  0  0  0  0  0
    6.9917    1.1833    0.0000 C   0  0  0  0  0  0  0  0  0  0  0  0
    6.9917    2.4750    0.0000 C   0  0  0  0  0  0  0  0  0  0  0  0
    7.7417    2.4750    0.0000 C   0  0  0  0  0  0  0  0  0  0  0  0
    7.7417    1.1833    0.0000 C   0  0  0  0  0  0  0  0  0  0  0  0
    8.1167    1.8333    0.0000 C   0  0  0  0  0  0  0  0  0  0  0  0
  2  1  1  0  0  0  0
  3  1  1  0  0  0  0
  4  3  1  0  0  0  0
  5  2  1  0  0  0  0
  5  4  1  0  0  0  0
  6  4  1  0  0  0  0
  7  1  1  0  0  0  0
  8  2  2  0  0  0  0
  9  3  2  0  0  0  0
 10 14  2  0  0  0  0
 11 10  1  0  0  0  0
 12  6  1  0  0  0  0
 13 15  2  0  0  0  0
 13 10  1  0  0  0  0
 14 16  1  0  0  0  0
 15 12  1  0  0  0  0
 16 12  2  0  0  0  0
 17 11  1  0  0  0  0
 18 11  1  0  0  0  0
 19  7  2  0  0  0  0
 20  7  1  0  0  0  0
 21 20  2  0  0  0  0
 22 19  1  0  0  0  0
 23 21  1  0  0  0  0
 23 22  2  0  0  0  0
M  END
>  <ID>
9007742

>  <Supplier>
ChemBridge

>  <clogP>
2.650000000000000e+000

>  <RB>
3

>  <tPSA>
5.265000000000000e+001

>  <Hacc>
2

>  <Hdon>
1

>  <LogSw>
-3.719000000000000e+000

>  <Group>
1

>  <Core>
126

$$$$
9007743
 OpenBabel03312015312D

 27 29  0  0  0  0  0  0  0  0999 V2000
    6.2625    3.3458    0.0000 C   0  0  0  0  0  0  0  0  0  0  0  0
    6.2625    2.5958    0.0000 C   0  0  0  0  0  0  0  0  0  0  0  0
    5.5500    3.5708    0.0000 N   0  0  0  0  0  0  0  0  0  0  0  0
    6.9125    3.7208    0.0000 N   0  0  0  0  0  0  0  0  0  0  0  0
    7.5625    2.5958    0.0000 N   0  0  0  0  0  0  0  0  0  0  0  0
    7.5625    3.3458    0.0000 C   0  0  0  0  0  0  0  0  0  0  0  0
    6.9125    2.2208    0.0000 C   0  0  0  0  0  0  0  0  0  0  0  0
    5.1042    2.9708    0.0000 C   0  0  0  0  0  0  0  0  0  0  0  0
    5.5500    2.3583    0.0000 N   0  0  0  0  0  0  0  0  0  0  0  0
    4.3542    2.9708    0.0000 S   0  0  0  0  0  0  0  0  0  0  0  0
    8.2125    3.7208    0.0000 O   0  0  0  0  0  0  0  0  0  0  0  0
    6.9125    1.4708    0.0000 O   0  0  0  0  0  0  0  0  0  0  0  0
    3.2292    3.6208    0.0000 C   0  0  0  0  0  0  0  0  0  0  0  0
    2.8542    4.2625    0.0000 N   0  0  0  0  0  0  0  0  0  0  0  0
    2.8542    2.9708    0.0000 O   0  0  0  0  0  0  0  0  0  0  0  0
    6.9125    4.4625    0.0000 C   0  0  0  0  0  0  0  0  0  0  0  0
    8.2125    2.2208    0.0000 C   0  0  0  0  0  0  0  0  0  0  0  0
    5.3167    1.6458    0.0000 C   0  0  0  0  0  0  0  0  0  0  0  0
    3.9792    3.6208    0.0000 C   0  0  0  0  0  0  0  0  0  0  0  0
    4.5792    1.4958    0.0000 C   0  0  0  0  0  0  0  0  0  0  0  0
    4.3500    0.7750    0.0000 C   0  0  0  0  0  0  0  0  0  0  0  0
    2.1042    4.2625    0.0000 C   0  0  0  0  0  0  0  0  0  0  0  0
    1.7292    4.9042    0.0000 C   0  0  0  0  0  0  0  0  0  0  0  0
    1.7292    3.6208    0.0000 C   0  0  0  0  0  0  0  0  0  0  0  0
    0.9792    3.6208    0.0000 C   0  0  0  0  0  0  0  0  0  0  0  0
    0.9792    4.9042    0.0000 C   0  0  0  0  0  0  0  0  0  0  0  0
    0.6042    4.2625    0.0000 C   0  0  0  0  0  0  0  0  0  0  0  0
  2  1  2  0  0  0  0
  3  1  1  0  0  0  0
  4  1  1  0  0  0  0
  5  6  1  0  0  0  0
  6  4  1  0  0  0  0
  7  2  1  0  0  0  0
  7  5  1  0  0  0  0
  8  3  2  0  0  0  0
  8  9  1  0  0  0  0
  9  2  1  0  0  0  0
 10  8  1  0  0  0  0
 11  6  2  0  0  0  0
 12  7  2  0  0  0  0
 13 19  1  0  0  0  0
 14 13  1  0  0  0  0
 15 13  2  0  0  0  0
 16  4  1  0  0  0  0
 17  5  1  0  0  0  0
 18  9  1  0  0  0  0
 19 10  1  0  0  0  0
 20 18  1  0  0  0  0
 21 20  2  0  0  0  0
 22 14  1  0  0  0  0
 23 22  2  0  0  0  0
 24 22  1  0  0  0  0
 25 24  2  0  0  0  0
 26 23  1  0  0  0  0
 27 25  1  0  0  0  0
 27 26  2  0  0  0  0
M  END
>  <ID>
9007743

>  <Supplier>
ChemBridge

>  <clogP>
2.420000000000000e+000

>  <RB>
6

>  <tPSA>
9.092000000000000e+001

>  <Hacc>
4

>  <Hdon>
1

>  <LogSw>
-4.077000000000000e+000

>  <Group>
2

>  <Core>
252

$$$$
5145701
 OpenBabel03312015312D

 20 21  0  0  0  0  0  0  0  0999 V2000
   -0.8958   -1.0000    0.0000 C   0  0  0  0  0  0  0  0  0  0  0  0
   -0.1958   -1.4000    0.0000 N   0  0  0  0  0  0  0  0  0  0  0  0
    0.5042   -1.0000    0.0000 C   0  0  0  0  0  0  0  0  0  0  0  0
   -1.5958   -1.4167    0.0000 N   0  0  0  0  0  0  0  0  0  0  0  0
    0.5042   -0.2000    0.0000 S   0  0  0  0  0  0  0  0  0  0  0  0
   -0.8958   -0.2000    0.0000 C   0  0  0  0  0  0  0  0  0  0  0  0
   -2.2958   -1.0167    0.0000 C   0  0  0  0  0  0  0  0  0  0  0  0
    1.2042   -1.4000    0.0000 N   0  0  0  0  0  0  0  0  0  0  0  0
   -3.6958   -0.2167    0.0000 C   0  0  0  0  0  0  0  0  0  0  0  0
   -2.9958   -1.4167    0.0000 C   0  0  0  0  0  0  0  0  0  0  0  0
   -2.2958   -0.2167    0.0000 C   0  0  0  0  0  0  0  0  0  0  0  0
   -3.6958   -1.0167    0.0000 C   0  0  0  0  0  0  0  0  0  0  0  0
   -2.9958    0.2000    0.0000 C   0  0  0  0  0  0  0  0  0  0  0  0
   -0.1958    0.2208    0.0000 C   0  0  0  0  0  0  0  0  0  0  0  0
   -1.5958    0.2208    0.0000 C   0  0  0  0  0  0  0  0  0  0  0  0
    1.9000   -1.0000    0.0000 C   0  0  0  0  0  0  0  0  0  0  0  0
   -4.3958    0.1625    0.0000 C   0  0  0  0  0  0  0  0  0  0  0  0
   -0.1958    1.0208    0.0000 C   0  0  0  0  0  0  0  0  0  0  0  0
   -1.5958    1.0208    0.0000 C   0  0  0  0  0  0  0  0  0  0  0  0
   -0.8958    1.4208    0.0000 C   0  0  0  0  0  0  0  0  0  0  0  0
  2  1  1  0  0  0  0
  3  2  1  0  0  0  0
  4  1  2  0  0  0  0
  5  3  2  0  0  0  0
  6  1  1  0  0  0  0
  7  4  1  0  0  0  0
  8  3  1  0  0  0  0
  9 13  2  0  0  0  0
  9 12  1  0  0  0  0
 10  7  1  0  0  0  0
 11  7  2  0  0  0  0
 12 10  2  0  0  0  0
 13 11  1  0  0  0  0
 14  6  2  0  0  0  0
 15  6  1  0  0  0  0
 16  8  1  0  0  0  0
 17  9  1  0  0  0  0
 18 14  1  0  0  0  0
 19 15  2  0  0  0  0
 20 19  1  0  0  0  0
 20 18  2  0  0  0  0
M  END
>  <ID>
5145701

>  <Supplier>
ChemBridge

>  <clogP>
4.960000000000000e+000

>  <RB>
3

>  <tPSA>
3.642000000000000e+001

>  <Hacc>
1

>  <Hdon>
2

>  <LogSw>
-4.495000000000000e+000

>  <Group>
1

$$$$
5145700
 OpenBabel03312015312D

 19 20  0  0  0  0  0  0  0  0999 V2000
   -0.8958   -1.0000    0.0000 C   0  0  0  0  0  0  0  0  0  0  0  0
   -0.1958   -1.4000    0.0000 N   0  0  0  0  0  0  0  0  0  0  0  0
    0.5042   -1.0000    0.0000 C   0  0  0  0  0  0  0  0  0  0  0  0
   -1.5958   -1.4167    0.0000 N   0  0  0  0  0  0  0  0  0  0  0  0
    0.5042   -0.2000    0.0000 S   0  0  0  0  0  0  0  0  0  0  0  0
   -0.8958   -0.2000    0.0000 C   0  0  0  0  0  0  0  0  0  0  0  0
    1.2042   -1.4000    0.0000 N   0  0  0  0  0  0  0  0  0  0  0  0
   -2.2958   -1.0167    0.0000 C   0  0  0  0  0  0  0  0  0  0  0  0
   -1.5958    0.2208    0.0000 C   0  0  0  0  0  0  0  0  0  0  0  0
   -0.1958    0.2208    0.0000 C   0  0  0  0  0  0  0  0  0  0  0  0
    1.9000   -1.0000    0.0000 C   0  0  0  0  0  0  0  0  0  0  0  0
   -2.2958   -0.2167    0.0000 C   0  0  0  0  0  0  0  0  0  0  0  0
   -2.9958   -1.4167    0.0000 C   0  0  0  0  0  0  0  0  0  0  0  0
   -0.1958    1.0208    0.0000 C   0  0  0  0  0  0  0  0  0  0  0  0
   -1.5958    1.0208    0.0000 C   0  0  0  0  0  0  0  0  0  0  0  0
   -2.9958    0.2000    0.0000 C   0  0  0  0  0  0  0  0  0  0  0  0
   -3.6958   -1.0167    0.0000 C   0  0  0  0  0  0  0  0  0  0  0  0
   -0.8958    1.4208    0.0000 C   0  0  0  0  0  0  0  0  0  0  0  0
   -3.6958   -0.2167    0.0000 C   0  0  0  0  0  0  0  0  0  0  0  0
  2  1  1  0  0  0  0
  3  2  1  0  0  0  0
  4  1  2  0  0  0  0
  5  3  2  0  0  0  0
  6  1  1  0  0  0  0
  7  3  1  0  0  0  0
  8  4  1  0  0  0  0
  9  6  1  0  0  0  0
 10  6  2  0  0  0  0
 11  7  1  0  0  0  0
 12  8  2  0  0  0  0
 13  8  1  0  0  0  0
 14 10  1  0  0  0  0
 15  9  2  0  0  0  0
 15 18  1  0  0  0  0
 16 12  1  0  0  0  0
 17 13  2  0  0  0  0
 18 14  2  0  0  0  0
 19 17  1  0  0  0  0
 19 16  2  0  0  0  0
M  END
>  <ID>
5145700

>  <Supplier>
ChemBridge

>  <clogP>
4.460000000000000e+000

>  <RB>
3

>  <tPSA>
3.642000000000000e+001

>  <Hacc>
1

>  <Hdon>
2

>  <LogSw>
-3.966000000000000e+000

>  <Group>
1

$$$$
5145703
 OpenBabel03312015312D

 27 29  0  0  0  0  0  0  0  0999 V2000
   -2.1833   -1.0000    0.0000 S   0  0  0  0  0  0  0  0  0  0  0  0
   -1.5208   -1.3792    0.0000 N   0  0  0  0  0  0  0  0  0  0  0  0
   -0.8625   -0.9792    0.0000 C   0  0  0  0  0  0  0  0  0  0  0  0
   -0.2000   -1.3542    0.0000 N   0  0  0  0  0  0  0  0  0  0  0  0
    0.4542   -0.9792    0.0000 C   0  0  0  0  0  0  0  0  0  0  0  0
   -1.8000   -0.3167    0.0000 O   0  0  0  0  0  0  0  0  0  0  0  0
   -2.5833   -1.6542    0.0000 O   0  0  0  0  0  0  0  0  0  0  0  0
   -2.8625   -0.6000    0.0000 C   0  0  0  0  0  0  0  0  0  0  0  0
    1.1167   -1.3542    0.0000 N   0  0  0  0  0  0  0  0  0  0  0  0
    0.4542   -0.2000    0.0000 S   0  0  0  0  0  0  0  0  0  0  0  0
   -0.8625   -0.2167    0.0000 C   0  0  0  0  0  0  0  0  0  0  0  0
    1.7792   -0.9542    0.0000 C   0  0  0  0  0  0  0  0  0  0  0  0
   -3.5208   -0.9792    0.0000 C   0  0  0  0  0  0  0  0  0  0  0  0
   -2.8625    0.1833    0.0000 C   0  0  0  0  0  0  0  0  0  0  0  0
   -0.2000    0.1833    0.0000 C   0  0  0  0  0  0  0  0  0  0  0  0
   -1.5208    0.1833    0.0000 C   0  0  0  0  0  0  0  0  0  0  0  0
    2.4375   -1.3375    0.0000 C   0  0  0  0  0  0  0  0  0  0  0  0
    1.7792   -0.1792    0.0000 C   0  0  0  0  0  0  0  0  0  0  0  0
   -1.5208    0.9458    0.0000 C   0  0  0  0  0  0  0  0  0  0  0  0
   -0.2208    0.9625    0.0000 C   0  0  0  0  0  0  0  0  0  0  0  0
   -3.5208    0.5625    0.0000 C   0  0  0  0  0  0  0  0  0  0  0  0
   -4.1833   -0.6000    0.0000 C   0  0  0  0  0  0  0  0  0  0  0  0
    2.4375    0.2000    0.0000 C   0  0  0  0  0  0  0  0  0  0  0  0
    3.1000   -0.9542    0.0000 C   0  0  0  0  0  0  0  0  0  0  0  0
    3.1000   -0.2000    0.0000 C   0  0  0  0  0  0  0  0  0  0  0  0
   -4.1833    0.1625    0.0000 C   0  0  0  0  0  0  0  0  0  0  0  0
   -0.8625    1.3208    0.0000 C   0  0  0  0  0  0  0  0  0  0  0  0
  2  1  1  0  0  0  0
  3  2  2  0  0  0  0
  4  3  1  0  0  0  0
  5  4  1  0  0  0  0
  6  1  2  0  0  0  0
  7  1  2  0  0  0  0
  8  1  1  0  0  0  0
  9  5  1  0  0  0  0
 10  5  2  0  0  0  0
 11  3  1  0  0  0  0
 12  9  1  0  0  0  0
 13  8  2  0  0  0  0
 14  8  1  0  0  0  0
 15 11  2  0  0  0  0
 16 11  1  0  0  0  0
 17 12  2  0  0  0  0
 18 12  1  0  0  0  0
 19 16  2  0  0  0  0
 20 15  1  0  0  0  0
 21 14  2  0  0  0  0
 22 13  1  0  0  0  0
 22 26  2  0  0  0  0
 23 18  2  0  0  0  0
 24 17  1  0  0  0  0
 25 23  1  0  0  0  0
 25 24  2  0  0  0  0
 26 21  1  0  0  0  0
 27 19  1  0  0  0  0
 27 20  2  0  0  0  0
M  END
>  <ID>
5145703

>  <Supplier>
ChemBridge

>  <clogP>
5.500000000000000e+000

>  <RB>
4

>  <tPSA>
7.056000000000000e+001

>  <Hacc>
3

>  <Hdon>
2

>  <LogSw>
-6.780000000000000e+000

>  <Group>
3

$$$$
5145702
 OpenBabel03312015312D

 27 29  0  0  0  0  0  0  0  0999 V2000
   -0.9208   -1.0292    0.0000 C   0  0  0  0  0  0  0  0  0  0  0  0
   -0.2458   -1.4042    0.0000 N   0  0  0  0  0  0  0  0  0  0  0  0
    0.4542   -1.0292    0.0000 C   0  0  0  0  0  0  0  0  0  0  0  0
   -1.6000   -1.4042    0.0000 N   0  0  0  0  0  0  0  0  0  0  0  0
    1.1375   -1.4042    0.0000 N   0  0  0  0  0  0  0  0  0  0  0  0
    0.4542   -0.2292    0.0000 S   0  0  0  0  0  0  0  0  0  0  0  0
   -0.9208   -0.2292    0.0000 C   0  0  0  0  0  0  0  0  0  0  0  0
   -2.2833   -1.0292    0.0000 C   0  0  0  0  0  0  0  0  0  0  0  0
    1.8167   -1.0292    0.0000 C   0  0  0  0  0  0  0  0  0  0  0  0
    3.1792   -0.2292    0.0000 C   0  0  0  0  0  0  0  0  0  0  0  0
   -3.6458   -0.2292    0.0000 C   0  0  0  0  0  0  0  0  0  0  0  0
   -2.2833   -0.2292    0.0000 C   0  0  0  0  0  0  0  0  0  0  0  0
   -2.9625   -1.4042    0.0000 C   0  0  0  0  0  0  0  0  0  0  0  0
    2.5000   -1.4042    0.0000 C   0  0  0  0  0  0  0  0  0  0  0  0
    1.8167   -0.2292    0.0000 C   0  0  0  0  0  0  0  0  0  0  0  0
    2.5000    0.1708    0.0000 C   0  0  0  0  0  0  0  0  0  0  0  0
    3.1792   -1.0292    0.0000 C   0  0  0  0  0  0  0  0  0  0  0  0
   -2.9625    0.1708    0.0000 C   0  0  0  0  0  0  0  0  0  0  0  0
   -3.6458   -1.0292    0.0000 C   0  0  0  0  0  0  0  0  0  0  0  0
    3.8542    0.1708    0.0000 O   0  0  0  0  0  0  0  0  0  0  0  0
   -0.2458    0.1708    0.0000 C   0  0  0  0  0  0  0  0  0  0  0  0
   -1.6000    0.1708    0.0000 C   0  0  0  0  0  0  0  0  0  0  0  0
   -4.3208    0.1708    0.0000 C   0  0  0  0  0  0  0  0  0  0  0  0
    4.5375   -0.2042    0.0000 C   0  0  0  0  0  0  0  0  0  0  0  0
   -1.6000    0.9500    0.0000 C   0  0  0  0  0  0  0  0  0  0  0  0
   -0.2458    0.9500    0.0000 C   0  0  0  0  0  0  0  0  0  0  0  0
   -0.9208    1.3500    0.0000 C   0  0  0  0  0  0  0  0  0  0  0  0
  2  1  1  0  0  0  0
  3  2  1  0  0  0  0
  4  1  2  0  0  0  0
  5  3  1  0  0  0  0
  6  3  2  0  0  0  0
  7  1  1  0  0  0  0
  8  4  1  0  0  0  0
  9  5  1  0  0  0  0
 10 16  1  0  0  0  0
 11 19  1  0  0  0  0
 11 18  2  0  0  0  0
 12  8  2  0  0  0  0
 13  8  1  0  0  0  0
 14  9  2  0  0  0  0
 15  9  1  0  0  0  0
 16 15  2  0  0  0  0
 17 14  1  0  0  0  0
 17 10  2  0  0  0  0
 18 12  1  0  0  0  0
 19 13  2  0  0  0  0
 20 10  1  0  0  0  0
 21  7  2  0  0  0  0
 22  7  1  0  0  0  0
 23 11  1  0  0  0  0
 24 20  1  0  0  0  0
 25 22  2  0  0  0  0
 26 21  1  0  0  0  0
 26 27  2  0  0  0  0
 27 25  1  0  0  0  0
M  END
>  <ID>
5145702

>  <Supplier>
ChemBridge

>  <clogP>
5.920000000000000e+000

>  <RB>
4

>  <tPSA>
4.564999999999998e+001

>  <Hacc>
2

>  <Hdon>
2

>  <LogSw>
-5.985000000000000e+000

>  <Group>
3

$$$$
5106560
 OpenBabel03312015312D

 29 31  0  0  0  0  0  0  0  0999 V2000
    1.1375   -0.8000    0.0000 S   0  0  0  0  0  0  0  0  0  0  0  0
    1.8875   -0.4292    0.0000 N   0  0  0  0  0  0  0  0  0  0  0  0
    2.6542   -0.8875    0.0000 C   0  0  0  0  0  0  0  0  0  0  0  0
   -2.0208    1.8125    0.0000 C   0  0  0  0  0  0  0  0  0  0  0  0
    3.4792   -0.4292    0.0000 C   0  0  0  0  0  0  0  0  0  0  0  0
    0.3500   -0.3792    0.0000 C   0  0  0  0  0  0  0  0  0  0  0  0
   -2.0000    0.9125    0.0000 N   0  0  0  0  0  0  0  0  0  0  0  0
    2.6375   -1.8292    0.0000 N   0  0  0  0  0  0  0  0  0  0  0  0
    1.7042   -1.3500    0.0000 O   0  0  0  0  0  0  0  0  0  0  0  0
    0.4375   -1.3042    0.0000 O   0  0  0  0  0  0  0  0  0  0  0  0
   -2.7958    2.2500    0.0000 C   0  0  0  0  0  0  0  0  0  0  0  0
    4.2875   -0.9167    0.0000 N   0  0  0  0  0  0  0  0  0  0  0  0
   -1.2333    2.2333    0.0000 O   0  0  0  0  0  0  0  0  0  0  0  0
    0.3292    0.5125    0.0000 C   0  0  0  0  0  0  0  0  0  0  0  0
   -0.4208   -0.8500    0.0000 C   0  0  0  0  0  0  0  0  0  0  0  0
   -2.7958    3.1958    0.0000 C   0  0  0  0  0  0  0  0  0  0  0  0
   -3.6000    1.7833    0.0000 C   0  0  0  0  0  0  0  0  0  0  0  0
   -1.2208    0.4833    0.0000 C   0  0  0  0  0  0  0  0  0  0  0  0
    3.4792    0.3125    0.0000 O   0  0  0  0  0  0  0  0  0  0  0  0
   -4.4125    3.1958    0.0000 C   0  0  0  0  0  0  0  0  0  0  0  0
   -0.4625    0.9500    0.0000 C   0  0  0  0  0  0  0  0  0  0  0  0
   -1.2000   -0.4167    0.0000 C   0  0  0  0  0  0  0  0  0  0  0  0
   -4.4125    2.2500    0.0000 C   0  0  0  0  0  0  0  0  0  0  0  0
   -3.6000    3.6708    0.0000 C   0  0  0  0  0  0  0  0  0  0  0  0
   -5.2208    3.5833    0.0000 O   0  0  0  0  0  0  0  0  0  0  0  0
    3.4542   -2.3000    0.0000 C   0  0  0  0  0  0  0  0  0  0  0  0
    4.2875   -1.8375    0.0000 C   0  0  0  0  0  0  0  0  0  0  0  0
    4.0542    0.7833    0.0000 C   0  0  0  0  0  0  0  0  0  0  0  0
   -5.7500    3.2333    0.0000 C   0  0  0  0  0  0  0  0  0  0  0  0
  2  1  1  0  0  0  0
  3  2  1  0  0  0  0
  4  7  1  0  0  0  0
  5  3  2  0  0  0  0
  6  1  1  0  0  0  0
  7 18  1  0  0  0  0
  8  3  1  0  0  0  0
  9  1  2  0  0  0  0
 10  1  2  0  0  0  0
 11  4  1  0  0  0  0
 12  5  1  0  0  0  0
 12 27  2  0  0  0  0
 13  4  2  0  0  0  0
 14  6  2  0  0  0  0
 15  6  1  0  0  0  0
 16 11  2  0  0  0  0
 17 11  1  0  0  0  0
 18 22  1  0  0  0  0
 18 21  2  0  0  0  0
 19  5  1  0  0  0  0
 20 23  1  0  0  0  0
 20 24  2  0  0  0  0
 21 14  1  0  0  0  0
 22 15  2  0  0  0  0
 23 17  2  0  0  0  0
 24 16  1  0  0  0  0
 25 20  1  0  0  0  0
 26  8  2  0  0  0  0
 27 26  1  0  0  0  0
 28 19  1  0  0  0  0
 29 25  1  0  0  0  0
M  END
>  <ID>
5106560

>  <Supplier>
ChemBridge

>  <clogP>
2.410000000000000e+000

>  <RB>
4

>  <tPSA>
1.195100000000000e+002

>  <Hacc>
7

>  <Hdon>
2

>  <LogSw>
-4.279000000000002e+000

>  <Group>
3

>  <Core>
234

$$$$
6813770
 OpenBabel03312015312D

 27 29  0  0  0  0  0  0  0  0999 V2000
    4.8417   -5.1792    0.0000 N   0  0  0  0  0  0  0  0  0  0  0  0
    5.4917   -4.8042    0.0000 C   0  0  0  0  0  0  0  0  0  0  0  0
    4.1917   -4.8042    0.0000 C   0  0  0  0  0  0  0  0  0  0  0  0
    6.1417   -5.1792    0.0000 N   0  0  0  0  0  0  0  0  0  0  0  0
    6.7917   -4.8042    0.0000 C   0  0  0  0  0  0  0  0  0  0  0  0
    3.5417   -5.1792    0.0000 C   0  0  0  0  0  0  0  0  0  0  0  0
    5.4917   -4.0542    0.0000 S   0  0  0  0  0  0  0  0  0  0  0  0
    7.4417   -5.1792    0.0000 C   0  0  0  0  0  0  0  0  0  0  0  0
    4.1917   -4.0542    0.0000 O   0  0  0  0  0  0  0  0  0  0  0  0
    2.8917   -4.8042    0.0000 C   0  0  0  0  0  0  0  0  0  0  0  0
    8.0917   -4.8042    0.0000 C   0  0  0  0  0  0  0  0  0  0  0  0
    2.2417   -5.1792    0.0000 C   0  0  0  0  0  0  0  0  0  0  0  0
    6.7917   -4.0542    0.0000 C   0  0  0  0  0  0  0  0  0  0  0  0
    1.5917   -4.8042    0.0000 O   0  0  0  0  0  0  0  0  0  0  0  0
    3.5417   -5.9292    0.0000 C   0  0  0  0  0  0  0  0  0  0  0  0
    7.4417   -3.6750    0.0000 C   0  0  0  0  0  0  0  0  0  0  0  0
    2.8917   -6.3042    0.0000 C   0  0  0  0  0  0  0  0  0  0  0  0
    7.4417   -5.9292    0.0000 C   0  0  0  0  0  0  0  0  0  0  0  0
    8.0917   -4.0542    0.0000 C   0  0  0  0  0  0  0  0  0  0  0  0
    2.2417   -5.9292    0.0000 C   0  0  0  0  0  0  0  0  0  0  0  0
    8.7500   -5.1792    0.0000 C   0  0  0  0  0  0  0  0  0  0  0  0
    1.5917   -4.0542    0.0000 C   0  0  0  0  0  0  0  0  0  0  0  0
    0.9500   -3.6792    0.0000 C   0  0  0  0  0  0  0  0  0  0  0  0
    0.9500   -2.9292    0.0000 C   0  0  0  0  0  0  0  0  0  0  0  0
    8.0917   -6.3125    0.0000 C   0  0  0  0  0  0  0  0  0  0  0  0
    0.3000   -2.5542    0.0000 C   0  0  0  0  0  0  0  0  0  0  0  0
    8.7417   -5.9375    0.0000 C   0  0  0  0  0  0  0  0  0  0  0  0
  2  1  1  0  0  0  0
  3  1  1  0  0  0  0
  4  2  1  0  0  0  0
  5  4  1  0  0  0  0
  6  3  1  0  0  0  0
  7  2  2  0  0  0  0
  8  5  2  0  0  0  0
  9  3  2  0  0  0  0
 10  6  1  0  0  0  0
 11  8  1  0  0  0  0
 11 19  2  0  0  0  0
 12 10  2  0  0  0  0
 12 20  1  0  0  0  0
 13  5  1  0  0  0  0
 14 12  1  0  0  0  0
 15  6  2  0  0  0  0
 16 13  2  0  0  0  0
 17 15  1  0  0  0  0
 18  8  1  0  0  0  0
 19 16  1  0  0  0  0
 20 17  2  0  0  0  0
 21 11  1  0  0  0  0
 22 14  1  0  0  0  0
 23 22  1  0  0  0  0
 24 23  1  0  0  0  0
 25 18  2  0  0  0  0
 26 24  1  0  0  0  0
 27 25  1  0  0  0  0
 27 21  2  0  0  0  0
M  END
>  <ID>
6813770

>  <Supplier>
ChemBridge

>  <clogP>
5.520000000000000e+000

>  <RB>
4

>  <tPSA>
5.036000000000001e+001

>  <Hacc>
2

>  <Hdon>
2

>  <LogSw>
-6.674000000000000e+000

>  <Group>
1

>  <Core>
071

$$$$
6038917
 OpenBabel03312015312D

 20 22  0  0  0  0  0  0  0  0999 V2000
    1.3042   -0.2042    0.0000 N   0  0  0  0  0  0  0  0  0  0  0  0
    0.5667    0.2208    0.0000 C   0  0  0  0  0  0  0  0  0  0  0  0
    1.3042   -1.0542    0.0000 N   0  0  0  0  0  0  0  0  0  0  0  0
   -0.1708   -0.2042    0.0000 C   0  0  0  0  0  0  0  0  0  0  0  0
    0.5667   -1.4792    0.0000 C   0  0  0  0  0  0  0  0  0  0  0  0
   -0.1708   -1.0542    0.0000 C   0  0  0  0  0  0  0  0  0  0  0  0
    0.5542    1.0500    0.0000 C   0  0  0  0  0  0  0  0  0  0  0  0
    1.2792    1.5000    0.0000 C   0  0  0  0  0  0  0  0  0  0  0  0
   -0.1708    1.4333    0.0000 C   0  0  0  0  0  0  0  0  0  0  0  0
    0.5542   -2.3042    0.0000 O   0  0  0  0  0  0  0  0  0  0  0  0
    0.4875    2.7333    0.0000 C   0  0  0  0  0  0  0  0  0  0  0  0
   -0.2208    2.2833    0.0000 C   0  0  0  0  0  0  0  0  0  0  0  0
    1.2292    2.3458    0.0000 C   0  0  0  0  0  0  0  0  0  0  0  0
   -0.9000    0.2333    0.0000 C   0  0  0  0  0  0  0  0  0  0  0  0
    0.4542    3.5708    0.0000 O   0  0  0  0  0  0  0  0  0  0  0  0
   -0.9000   -1.4792    0.0000 C   0  0  0  0  0  0  0  0  0  0  0  0
    1.2667   -2.7375    0.0000 C   0  0  0  0  0  0  0  0  0  0  0  0
   -0.2833    3.9625    0.0000 C   0  0  0  0  0  0  0  0  0  0  0  0
   -1.6333   -0.2042    0.0000 C   0  0  0  0  0  0  0  0  0  0  0  0
   -1.6333   -1.0542    0.0000 C   0  0  0  0  0  0  0  0  0  0  0  0
  2  1  2  0  0  0  0
  3  1  1  0  0  0  0
  4  2  1  0  0  0  0
  4  6  2  0  0  0  0
  5  3  2  0  0  0  0
  6  5  1  0  0  0  0
  7  2  1  0  0  0  0
  8  7  2  0  0  0  0
  9  7  1  0  0  0  0
 10  5  1  0  0  0  0
 11 12  1  0  0  0  0
 12  9  2  0  0  0  0
 13  8  1  0  0  0  0
 13 11  2  0  0  0  0
 14  4  1  0  0  0  0
 15 11  1  0  0  0  0
 16  6  1  0  0  0  0
 17 10  1  0  0  0  0
 18 15  1  0  0  0  0
 19 14  2  0  0  0  0
 19 20  1  0  0  0  0
 20 16  2  0  0  0  0
M  END
>  <ID>
6038917

>  <Supplier>
ChemBridge

>  <clogP>
3.240000000000000e+000

>  <RB>
1

>  <tPSA>
4.424000000000000e+001

>  <Hacc>
4

>  <Hdon>
0

>  <LogSw>
-3.910000000000000e+000

>  <Group>
3

>  <Core>
339

$$$$
9034438
 OpenBabel03312015312D

 22 23  0  0  0  0  0  0  0  0999 V2000
    3.7792    0.4208    0.0000 S   0  0  0  0  0  0  0  0  0  0  0  0
    4.3875    0.8625    0.0000 C   0  0  0  0  0  0  0  0  0  0  0  0
    5.1000    0.6333    0.0000 C   0  0  0  0  0  0  0  0  0  0  0  0
    5.5417    1.2375    0.0000 C   0  0  0  0  0  0  0  0  0  0  0  0
    6.2917    1.2375    0.0000 C   0  0  0  0  0  0  0  0  0  0  0  0
    5.1000    1.8458    0.0000 S   0  0  0  0  0  0  0  0  0  0  0  0
    4.3875    1.6125    0.0000 C   0  0  0  0  0  0  0  0  0  0  0  0
    6.6667    1.8958    0.0000 N   0  0  0  0  0  0  0  0  0  0  0  0
    3.2542   -0.1167    0.0000 O   0  0  0  0  0  0  0  0  0  0  0  0
    4.2667   -0.1417    0.0000 O   0  0  0  0  0  0  0  0  0  0  0  0
    3.1917    0.8958    0.0000 N   0  0  0  0  0  0  0  0  0  0  0  0
    6.6667    0.5875    0.0000 O   0  0  0  0  0  0  0  0  0  0  0  0
    7.4167    1.8958    0.0000 C   0  0  0  0  0  0  0  0  0  0  0  0
    2.4917    0.6250    0.0000 C   0  0  0  0  0  0  0  0  0  0  0  0
    1.2125    0.8250    0.0000 O   0  0  0  0  0  0  0  0  0  0  0  0
    1.9125    1.0958    0.0000 C   0  0  0  0  0  0  0  0  0  0  0  0
    7.7917    1.2375    0.0000 C   0  0  0  0  0  0  0  0  0  0  0  0
    7.7917    2.5333    0.0000 C   0  0  0  0  0  0  0  0  0  0  0  0
    0.6292    1.3000    0.0000 C   0  0  0  0  0  0  0  0  0  0  0  0
    8.5417    2.5333    0.0000 C   0  0  0  0  0  0  0  0  0  0  0  0
    8.5417    1.2375    0.0000 C   0  0  0  0  0  0  0  0  0  0  0  0
    8.9167    1.8958    0.0000 C   0  0  0  0  0  0  0  0  0  0  0  0
  2  1  1  0  0  0  0
  3  2  1  0  0  0  0
  4  3  2  0  0  0  0
  4  6  1  0  0  0  0
  5  4  1  0  0  0  0
  6  7  1  0  0  0  0
  7  2  2  0  0  0  0
  8  5  1  0  0  0  0
  9  1  2  0  0  0  0
 10  1  2  0  0  0  0
 11  1  1  0  0  0  0
 12  5  2  0  0  0  0
 13  8  1  0  0  0  0
 14 11  1  0  0  0  0
 15 16  1  0  0  0  0
 16 14  1  0  0  0  0
 17 13  2  0  0  0  0
 18 13  1  0  0  0  0
 19 15  1  0  0  0  0
 20 18  2  0  0  0  0
 21 17  1  0  0  0  0
 22 20  1  0  0  0  0
 22 21  2  0  0  0  0
M  END
>  <ID>
9034438

>  <Supplier>
ChemBridge

>  <clogP>
1.866000000000000e+000

>  <RB>
5

>  <tPSA>
8.450000000000004e+001

>  <Hacc>
5

>  <Hdon>
2

>  <LogSw>
-3.276000000000000e+000

>  <Group>
2

>  <Core>
534

$$$$
9034439
 OpenBabel03312015312D

 21 22  0  0  0  0  0  0  0  0999 V2000
    5.8292    3.5250    0.0000 S   0  0  0  0  0  0  0  0  0  0  0  0
    5.3000    4.0417    0.0000 N   0  0  0  0  0  0  0  0  0  0  0  0
    5.4542    2.8750    0.0000 C   0  0  0  0  0  0  0  0  0  0  0  0
    5.4167    4.7917    0.0000 N   0  0  0  0  0  0  0  0  0  0  0  0
    4.5542    3.9375    0.0000 C   0  0  0  0  0  0  0  0  0  0  0  0
    4.2167    4.5917    0.0000 C   0  0  0  0  0  0  0  0  0  0  0  0
    4.7042    2.8750    0.0000 C   0  0  0  0  0  0  0  0  0  0  0  0
    6.4417    3.0958    0.0000 O   0  0  0  0  0  0  0  0  0  0  0  0
    6.3125    4.0917    0.0000 O   0  0  0  0  0  0  0  0  0  0  0  0
    4.7500    5.1292    0.0000 C   0  0  0  0  0  0  0  0  0  0  0  0
    5.8292    2.2250    0.0000 C   0  0  0  0  0  0  0  0  0  0  0  0
    5.4542    1.5750    0.0000 C   0  0  0  0  0  0  0  0  0  0  0  0
    4.3292    2.2250    0.0000 C   0  0  0  0  0  0  0  0  0  0  0  0
    4.7042    1.5750    0.0000 C   0  0  0  0  0  0  0  0  0  0  0  0
    6.5792    2.2250    0.0000 O   0  0  0  0  0  0  0  0  0  0  0  0
    3.5792    2.2250    0.0000 O   0  0  0  0  0  0  0  0  0  0  0  0
    4.6292    5.8667    0.0000 C   0  0  0  0  0  0  0  0  0  0  0  0
    6.9542    1.5750    0.0000 C   0  0  0  0  0  0  0  0  0  0  0  0
    3.2042    1.5750    0.0000 C   0  0  0  0  0  0  0  0  0  0  0  0
    7.7042    1.5750    0.0000 C   0  0  0  0  0  0  0  0  0  0  0  0
    2.4542    1.5750    0.0000 C   0  0  0  0  0  0  0  0  0  0  0  0
  2  1  1  0  0  0  0
  3  1  1  0  0  0  0
  4  2  1  0  0  0  0
  5  2  1  0  0  0  0
  6  5  2  0  0  0  0
  6 10  1  0  0  0  0
  7  3  1  0  0  0  0
  8  1  2  0  0  0  0
  9  1  2  0  0  0  0
 10  4  2  0  0  0  0
 11  3  2  0  0  0  0
 12 11  1  0  0  0  0
 13  7  2  0  0  0  0
 14 12  2  0  0  0  0
 14 13  1  0  0  0  0
 15 11  1  0  0  0  0
 16 13  1  0  0  0  0
 17 10  1  0  0  0  0
 18 15  1  0  0  0  0
 19 16  1  0  0  0  0
 20 18  1  0  0  0  0
 21 19  1  0  0  0  0
M  END
>  <ID>
9034439

>  <Supplier>
ChemBridge

>  <clogP>
1.840000000000000e+000

>  <RB>
1

>  <tPSA>
7.042000000000000e+001

>  <Hacc>
5

>  <Hdon>
0

>  <LogSw>
-3.035000000000000e+000

>  <Group>
2

$$$$
9068047
 OpenBabel03312015312D

 25 27  0  0  0  0  0  0  0  0999 V2000
    4.2667    2.1833    0.0000 C   0  0  0  0  0  0  0  0  0  0  0  0
    4.9792    1.9458    0.0000 N   0  0  0  0  0  0  0  0  0  0  0  0
    5.4250    2.5583    0.0000 C   0  0  0  0  0  0  0  0  0  0  0  0
    4.9792    3.1708    0.0000 N   0  0  0  0  0  0  0  0  0  0  0  0
    3.6625    1.7375    0.0000 C   0  0  0  0  0  0  0  0  0  0  0  0
    4.2667    2.9333    0.0000 O   0  0  0  0  0  0  0  0  0  0  0  0
    6.1750    2.5583    0.0000 C   0  0  0  0  0  0  0  0  0  0  0  0
    2.9792    2.0458    0.0000 N   0  0  0  0  0  0  0  0  0  0  0  0
    6.5500    1.9083    0.0000 C   0  0  0  0  0  0  0  0  0  0  0  0
    7.3000    1.9083    0.0000 C   0  0  0  0  0  0  0  0  0  0  0  0
    3.7417    0.9958    0.0000 O   0  0  0  0  0  0  0  0  0  0  0  0
    7.6750    2.5583    0.0000 C   0  0  0  0  0  0  0  0  0  0  0  0
    6.5500    3.2083    0.0000 C   0  0  0  0  0  0  0  0  0  0  0  0
    7.3000    3.2083    0.0000 C   0  0  0  0  0  0  0  0  0  0  0  0
    2.3667    1.6083    0.0000 C   0  0  0  0  0  0  0  0  0  0  0  0
    7.6750    1.2583    0.0000 O   0  0  0  0  0  0  0  0  0  0  0  0
    8.4250    2.5583    0.0000 O   0  0  0  0  0  0  0  0  0  0  0  0
    7.3000    0.6083    0.0000 C   0  0  0  0  0  0  0  0  0  0  0  0
    8.8000    3.2083    0.0000 C   0  0  0  0  0  0  0  0  0  0  0  0
    1.7125    1.9583    0.0000 C   0  0  0  0  0  0  0  0  0  0  0  0
    2.5042    0.8708    0.0000 C   0  0  0  0  0  0  0  0  0  0  0  0
    2.0042    0.3000    0.0000 C   0  0  0  0  0  0  0  0  0  0  0  0
    1.0167    1.6625    0.0000 C   0  0  0  0  0  0  0  0  0  0  0  0
    1.2625    0.3333    0.0000 C   0  0  0  0  0  0  0  0  0  0  0  0
    0.8250    0.9458    0.0000 C   0  0  0  0  0  0  0  0  0  0  0  0
  2  1  2  0  0  0  0
  3  2  1  0  0  0  0
  3  4  2  0  0  0  0
  4  6  1  0  0  0  0
  5  1  1  0  0  0  0
  6  1  1  0  0  0  0
  7  3  1  0  0  0  0
  8  5  1  0  0  0  0
  9  7  2  0  0  0  0
 10  9  1  0  0  0  0
 10 12  2  0  0  0  0
 11  5  2  0  0  0  0
 12 14  1  0  0  0  0
 13  7  1  0  0  0  0
 14 13  2  0  0  0  0
 15  8  1  0  0  0  0
 16 10  1  0  0  0  0
 17 12  1  0  0  0  0
 18 16  1  0  0  0  0
 19 17  1  0  0  0  0
 20 15  1  0  0  0  0
 21 15  1  0  0  0  0
 22 21  1  0  0  0  0
 23 20  1  0  0  0  0
 24 22  1  0  0  0  0
 25 23  1  0  0  0  0
 25 24  1  0  0  0  0
M  END
>  <ID>
9068047

>  <Supplier>
ChemBridge

>  <clogP>
3.892000000000000e+000

>  <RB>
3

>  <tPSA>
8.647999999999999e+001

>  <Hacc>
6

>  <Hdon>
1

>  <LogSw>
-4.706000000000000e+000

>  <Group>
1

>  <Core>
203

$$$$
9068040
 OpenBabel03312015312D

 28 30  0  0  0  0  0  0  0  0999 V2000
    9.8000    2.1875    0.0000 N   0  0  0  0  0  0  0  0  0  0  0  0
   10.5125    2.4208    0.0000 C   0  0  0  0  0  0  0  0  0  0  0  0
    9.3542    2.7958    0.0000 C   0  0  0  0  0  0  0  0  0  0  0  0
   10.5125    3.1708    0.0000 N   0  0  0  0  0  0  0  0  0  0  0  0
    7.4792    2.1458    0.0000 C   0  0  0  0  0  0  0  0  0  0  0  0
    7.1042    1.4958    0.0000 C   0  0  0  0  0  0  0  0  0  0  0  0
    9.8000    3.4000    0.0000 O   0  0  0  0  0  0  0  0  0  0  0  0
    8.2292    2.1458    0.0000 N   0  0  0  0  0  0  0  0  0  0  0  0
   11.1167    1.9833    0.0000 C   0  0  0  0  0  0  0  0  0  0  0  0
    8.6042    2.7958    0.0000 C   0  0  0  0  0  0  0  0  0  0  0  0
    6.3542    1.4958    0.0000 C   0  0  0  0  0  0  0  0  0  0  0  0
    7.4792    0.8458    0.0000 C   0  0  0  0  0  0  0  0  0  0  0  0
    7.1042    2.7958    0.0000 O   0  0  0  0  0  0  0  0  0  0  0  0
    6.3542    0.1958    0.0000 C   0  0  0  0  0  0  0  0  0  0  0  0
    7.1042    0.1958    0.0000 C   0  0  0  0  0  0  0  0  0  0  0  0
    5.9792    0.8458    0.0000 C   0  0  0  0  0  0  0  0  0  0  0  0
   11.0417    1.2333    0.0000 C   0  0  0  0  0  0  0  0  0  0  0  0
   11.6417    0.7958    0.0000 C   0  0  0  0  0  0  0  0  0  0  0  0
    7.4792   -0.4542    0.0000 O   0  0  0  0  0  0  0  0  0  0  0  0
    5.2292    0.8458    0.0000 O   0  0  0  0  0  0  0  0  0  0  0  0
    8.6042    1.4958    0.0000 C   0  0  0  0  0  0  0  0  0  0  0  0
   11.8042    2.2833    0.0000 C   0  0  0  0  0  0  0  0  0  0  0  0
   12.4125    1.8458    0.0000 C   0  0  0  0  0  0  0  0  0  0  0  0
   12.3292    1.0958    0.0000 C   0  0  0  0  0  0  0  0  0  0  0  0
   11.5667    0.0458    0.0000 C   0  0  0  0  0  0  0  0  0  0  0  0
    4.8542    0.1958    0.0000 C   0  0  0  0  0  0  0  0  0  0  0  0
    7.1042   -1.1042    0.0000 C   0  0  0  0  0  0  0  0  0  0  0  0
    9.3542    1.4958    0.0000 C   0  0  0  0  0  0  0  0  0  0  0  0
  2  1  1  0  0  0  0
  3  1  2  0  0  0  0
  4  2  2  0  0  0  0
  4  7  1  0  0  0  0
  5  8  1  0  0  0  0
  6  5  1  0  0  0  0
  7  3  1  0  0  0  0
  8 10  1  0  0  0  0
  9  2  1  0  0  0  0
 10  3  1  0  0  0  0
 11  6  1  0  0  0  0
 12  6  2  0  0  0  0
 13  5  2  0  0  0  0
 14 15  2  0  0  0  0
 14 16  1  0  0  0  0
 15 12  1  0  0  0  0
 16 11  2  0  0  0  0
 17  9  2  0  0  0  0
 18 17  1  0  0  0  0
 18 24  2  0  0  0  0
 19 15  1  0  0  0  0
 20 16  1  0  0  0  0
 21  8  1  0  0  0  0
 22  9  1  0  0  0  0
 23 22  2  0  0  0  0
 24 23  1  0  0  0  0
 25 18  1  0  0  0  0
 26 20  1  0  0  0  0
 27 19  1  0  0  0  0
 28 21  1  0  0  0  0
M  END
>  <ID>
9068040

>  <Supplier>
ChemBridge

>  <clogP>
3.521000000000000e+000

>  <RB>
4

>  <tPSA>
7.769000000000000e+001

>  <Hacc>
6

>  <Hdon>
0

>  <LogSw>
-4.653999999999996e+000

>  <Group>
2

>  <Core>
204

$$$$
7524057
 OpenBabel03312015312D

 20 21  0  0  0  0  0  0  0  0999 V2000
    3.9000   -0.4792    0.0000 C   0  0  0  0  0  0  0  0  0  0  0  0
    3.7750    0.2583    0.0000 C   0  0  0  0  0  0  0  0  0  0  0  0
    3.2375   -0.8250    0.0000 N   0  0  0  0  0  0  0  0  0  0  0  0
    4.6000   -0.7417    0.0000 C   0  0  0  0  0  0  0  0  0  0  0  0
    3.0375    0.3708    0.0000 C   0  0  0  0  0  0  0  0  0  0  0  0
    2.7042   -0.2875    0.0000 N   0  0  0  0  0  0  0  0  0  0  0  0
    4.7292   -1.4792    0.0000 N   0  0  0  0  0  0  0  0  0  0  0  0
    5.1792   -0.2625    0.0000 O   0  0  0  0  0  0  0  0  0  0  0  0
    3.0042   -2.9167    0.0000 C   0  0  0  0  0  0  0  0  0  0  0  0
    4.3042    0.7958    0.0000 Cl  0  0  0  0  0  0  0  0  0  0  0  0
    4.1500   -1.9667    0.0000 C   0  0  0  0  0  0  0  0  0  0  0  0
    3.7042   -3.1792    0.0000 C   0  0  0  0  0  0  0  0  0  0  0  0
    2.8667   -2.1917    0.0000 C   0  0  0  0  0  0  0  0  0  0  0  0
    2.4292   -3.3917    0.0000 C   0  0  3  0  0  0  0  0  0  0  0  0
    3.4500   -1.7042    0.0000 C   0  0  0  0  0  0  0  0  0  0  0  0
    4.2792   -2.7042    0.0000 C   0  0  0  0  0  0  0  0  0  0  0  0
    1.9542   -0.3875    0.0000 C   0  0  0  0  0  0  0  0  0  0  0  0
    2.5542   -4.1292    0.0000 C   0  0  0  0  0  0  0  0  0  0  0  0
    1.7250   -3.1375    0.0000 C   0  0  0  0  0  0  0  0  0  0  0  0
    1.9792   -4.6167    0.0000 C   0  0  0  0  0  0  0  0  0  0  0  0
  2  1  1  0  0  0  0
  3  1  2  0  0  0  0
  4  1  1  0  0  0  0
  5  2  2  0  0  0  0
  5  6  1  0  0  0  0
  6  3  1  0  0  0  0
  7  4  1  0  0  0  0
  8  4  2  0  0  0  0
  9 12  2  0  0  0  0
 10  2  1  0  0  0  0
 11  7  1  0  0  0  0
 12 16  1  0  0  0  0
 13 15  2  0  0  0  0
 13  9  1  0  0  0  0
 14  9  1  0  0  0  0
 15 11  1  0  0  0  0
 16 11  2  0  0  0  0
 17  6  1  0  0  0  0
 18 14  1  0  0  0  0
 19 14  1  0  0  0  0
 20 18  1  0  0  0  0
M  END
>  <ID>
7524057

>  <Supplier>
ChemBridge

>  <clogP>
3.202000000000000e+000

>  <RB>
3

>  <tPSA>
4.692000000000000e+001

>  <Hacc>
2

>  <Hdon>
1

>  <LogSw>
-5.211000000000000e+000

>  <Group>
2

$$$$
5754938
 OpenBabel03312015312D

 28 31  0  0  0  0  0  0  0  0999 V2000
    2.4417    0.5500    0.0000 C   0  0  0  0  0  0  0  0  0  0  0  0
    2.0000   -0.0500    0.0000 N   0  0  0  0  0  0  0  0  0  0  0  0
    5.7750   -4.0292    0.0000 N   0  3  0  0  0  0  0  0  0  0  0  0
    2.0042    1.1625    0.0000 O   0  0  0  0  0  0  0  0  0  0  0  0
    1.2875    0.1875    0.0000 C   0  0  0  0  0  0  0  0  0  0  0  0
    3.1917    0.5458    0.0000 C   0  0  0  0  0  0  0  0  0  0  0  0
    4.3000   -1.4167    0.0000 C   0  0  0  0  0  0  0  0  0  0  0  0
    4.6792   -0.7667    0.0000 N   0  0  0  0  0  0  0  0  0  0  0  0
    3.5667   -0.1125    0.0000 C   0  0  0  0  0  0  0  0  0  0  0  0
    4.3167   -0.1167    0.0000 C   0  0  0  0  0  0  0  0  0  0  0  0
    1.2917    0.9375    0.0000 C   0  0  0  0  0  0  0  0  0  0  0  0
    5.4042   -3.3792    0.0000 C   0  0  0  0  0  0  0  0  0  0  0  0
    0.6375   -0.1792    0.0000 N   0  0  0  0  0  0  0  0  0  0  0  0
    5.3917   -4.6792    0.0000 O   0  5  0  0  0  0  0  0  0  0  0  0
    4.6667   -2.0667    0.0000 C   0  0  0  0  0  0  0  0  0  0  0  0
    6.5250   -4.0417    0.0000 O   0  0  0  0  0  0  0  0  0  0  0  0
    3.5500   -1.4042    0.0000 O   0  0  0  0  0  0  0  0  0  0  0  0
    5.7875   -2.7292    0.0000 C   0  0  0  0  0  0  0  0  0  0  0  0
    4.6542   -3.3667    0.0000 C   0  0  0  0  0  0  0  0  0  0  0  0
    5.4167   -2.0792    0.0000 C   0  0  0  0  0  0  0  0  0  0  0  0
    4.2875   -2.7167    0.0000 C   0  0  0  0  0  0  0  0  0  0  0  0
    3.5792    1.1875    0.0000 C   0  0  0  0  0  0  0  0  0  0  0  0
    4.6917    0.5250    0.0000 C   0  0  0  0  0  0  0  0  0  0  0  0
    3.1792   -0.7542    0.0000 C   0  0  0  0  0  0  0  0  0  0  0  0
    4.3292    1.1833    0.0000 C   0  0  0  0  0  0  0  0  0  0  0  0
    0.6500    1.3208    0.0000 C   0  0  0  0  0  0  0  0  0  0  0  0
   -0.0083    0.2000    0.0000 C   0  0  0  0  0  0  0  0  0  0  0  0
    0.0000    0.9500    0.0000 C   0  0  0  0  0  0  0  0  0  0  0  0
  2  1  2  0  0  0  0
  3 12  1  0  0  0  0
  4  1  1  0  0  0  0
  5  2  1  0  0  0  0
  6  1  1  0  0  0  0
  7  8  1  0  0  0  0
  8 10  1  0  0  0  0
  9  6  1  0  0  0  0
 10  9  2  0  0  0  0
 10 23  1  0  0  0  0
 11  4  1  0  0  0  0
 11  5  2  0  0  0  0
 12 19  1  0  0  0  0
 12 18  2  0  0  0  0
 13  5  1  0  0  0  0
 14  3  1  0  0  0  0
 15  7  1  0  0  0  0
 16  3  2  0  0  0  0
 17  7  2  0  0  0  0
 18 20  1  0  0  0  0
 19 21  2  0  0  0  0
 20 15  2  0  0  0  0
 21 15  1  0  0  0  0
 22  6  2  0  0  0  0
 23 25  2  0  0  0  0
 24  9  1  0  0  0  0
 25 22  1  0  0  0  0
 26 11  1  0  0  0  0
 27 13  2  0  0  0  0
 28 26  2  0  0  0  0
 28 27  1  0  0  0  0
M  CHG  2   3   1  14  -1
M  END
>  <ID>
5754938

>  <Supplier>
ChemBridge

>  <clogP>
2.700000000000000e+000

>  <RB>
3

>  <tPSA>
1.111600000000000e+002

>  <Hacc>
6

>  <Hdon>
1

>  <LogSw>
-4.624999999999997e+000

>  <Group>
1

>  <Core>
069

$$$$
7886009
 OpenBabel03312015312D

 25 27  0  0  0  0  0  0  0  0999 V2000
   -0.3083    2.8125    0.0000 C   0  0  0  0  0  0  0  0  0  0  0  0
    2.9417    3.1875    0.0000 N   0  0  0  0  0  0  0  0  0  0  0  0
    3.5917    2.8125    0.0000 C   0  0  0  0  0  0  0  0  0  0  0  0
    1.6417    3.9375    0.0000 N   0  0  0  0  0  0  0  0  0  0  0  0
    0.3417    3.1875    0.0000 N   0  0  0  0  0  0  0  0  0  0  0  0
   -0.3083    2.0625    0.0000 C   0  0  0  0  0  0  0  0  0  0  0  0
    0.3417    3.9375    0.0000 C   0  0  0  0  0  0  0  0  0  0  0  0
    0.9917    4.3042    0.0000 C   0  0  0  0  0  0  0  0  0  0  0  0
   -0.9125    1.6208    0.0000 S   0  0  0  0  0  0  0  0  0  0  0  0
    2.9417    3.9375    0.0000 C   0  0  0  0  0  0  0  0  0  0  0  0
    2.2917    2.8125    0.0000 C   0  0  0  0  0  0  0  0  0  0  0  0
    2.2917    4.3042    0.0000 C   0  0  0  0  0  0  0  0  0  0  0  0
    1.6417    3.1875    0.0000 C   0  0  0  0  0  0  0  0  0  0  0  0
    4.2417    3.1875    0.0000 O   0  0  0  0  0  0  0  0  0  0  0  0
    0.3042    1.6208    0.0000 C   0  0  0  0  0  0  0  0  0  0  0  0
   -0.9583    3.1875    0.0000 O   0  0  0  0  0  0  0  0  0  0  0  0
   -0.6833    0.9083    0.0000 C   0  0  0  0  0  0  0  0  0  0  0  0
    0.0667    0.9083    0.0000 C   0  0  0  0  0  0  0  0  0  0  0  0
    3.5917    2.0625    0.0000 C   0  0  0  0  0  0  0  0  0  0  0  0
   -0.3083    4.3042    0.0000 C   0  0  0  0  0  0  0  0  0  0  0  0
    0.9917    5.0542    0.0000 C   0  0  0  0  0  0  0  0  0  0  0  0
    4.2417    1.6875    0.0000 C   0  0  0  0  0  0  0  0  0  0  0  0
    2.9417    1.6875    0.0000 C   0  0  0  0  0  0  0  0  0  0  0  0
   -0.3083    5.0542    0.0000 C   0  0  0  0  0  0  0  0  0  0  0  0
    0.3417    5.4292    0.0000 C   0  0  0  0  0  0  0  0  0  0  0  0
  2 11  1  0  0  0  0
  3  2  1  0  0  0  0
  4  8  1  0  0  0  0
  5  1  1  0  0  0  0
  6  1  1  0  0  0  0
  7  5  1  0  0  0  0
  8  7  2  0  0  0  0
  9  6  1  0  0  0  0
 10 12  1  0  0  0  0
 10  2  1  0  0  0  0
 11 13  1  0  0  0  0
 12  4  1  0  0  0  0
 13  4  1  0  0  0  0
 14  3  2  0  0  0  0
 15  6  2  0  0  0  0
 16  1  2  0  0  0  0
 17  9  1  0  0  0  0
 17 18  2  0  0  0  0
 18 15  1  0  0  0  0
 19  3  1  0  0  0  0
 20  7  1  0  0  0  0
 21  8  1  0  0  0  0
 22 19  1  0  0  0  0
 23 19  1  0  0  0  0
 24 20  2  0  0  0  0
 25 24  1  0  0  0  0
 25 21  2  0  0  0  0
M  END
>  <ID>
7886009

>  <Supplier>
ChemBridge

>  <clogP>
1.311000000000000e+000

>  <RB>
3

>  <tPSA>
5.265000000000000e+001

>  <Hacc>
2

>  <Hdon>
1

>  <LogSw>
-2.926000000000000e+000

>  <Group>
1

>  <Core>
158

$$$$
7993537
 OpenBabel03312015312D

 25 26  0  0  0  0  0  0  0  0999 V2000
    5.2500    2.9458    0.0000 C   0  0  3  0  0  0  0  0  0  0  0  0
    6.3750    3.5958    0.0000 C   0  0  3  0  0  0  0  0  0  0  0  0
    5.2500    4.2417    0.0000 C   0  0  0  0  0  0  0  0  0  0  0  0
    6.0000    2.9458    0.0000 C   0  0  3  0  0  0  0  0  0  0  0  0
    6.0000    4.2417    0.0000 C   0  0  3  0  0  0  0  0  0  0  0  0
    4.8750    3.5958    0.0000 C   0  0  0  0  0  0  0  0  0  0  0  0
    7.1250    3.5958    0.0000 C   0  0  0  0  0  0  0  0  0  0  0  0
    6.3750    2.3000    0.0000 C   0  0  0  0  0  0  0  0  0  0  0  0
    6.3750    4.8917    0.0000 C   0  0  0  0  0  0  0  0  0  0  0  0
    4.8750    4.8917    0.0000 O   0  0  0  0  0  0  0  0  0  0  0  0
    9.3750    3.5958    0.0000 C   0  0  0  0  0  0  0  0  0  0  0  0
    8.6250    3.5958    0.0000 C   0  0  0  0  0  0  0  0  0  0  0  0
    6.0000    5.5417    0.0000 O   0  0  0  0  0  0  0  0  0  0  0  0
    7.1250    2.3000    0.0000 O   0  0  0  0  0  0  0  0  0  0  0  0
    7.5000    4.2417    0.0000 C   0  0  0  0  0  0  0  0  0  0  0  0
    7.5000    2.9458    0.0000 C   0  0  0  0  0  0  0  0  0  0  0  0
    8.2500    2.9458    0.0000 C   0  0  0  0  0  0  0  0  0  0  0  0
    8.2500    4.2417    0.0000 C   0  0  0  0  0  0  0  0  0  0  0  0
    4.5417    2.6958    0.0000 O   0  0  0  0  0  0  0  0  0  0  0  0
    5.3792    2.2083    0.0000 C   0  0  0  0  0  0  0  0  0  0  0  0
    9.5667    4.3167    0.0000 C   0  0  0  0  0  0  0  0  0  0  0  0
    9.3125    2.8500    0.0000 C   0  0  0  0  0  0  0  0  0  0  0  0
   10.1167    3.4708    0.0000 C   0  0  0  0  0  0  0  0  0  0  0  0
    7.1250    4.8917    0.0000 C   0  0  0  0  0  0  0  0  0  0  0  0
    6.0000    1.6500    0.0000 C   0  0  0  0  0  0  0  0  0  0  0  0
  2  4  1  0  0  0  0
  3  6  1  0  0  0  0
  4  1  1  0  0  0  0
  5  3  1  0  0  0  0
  5  2  1  0  0  0  0
  6  1  1  0  0  0  0
  7  2  1  0  0  0  0
  8  4  1  0  0  0  0
  9  5  1  0  0  0  0
 10  3  2  0  0  0  0
 11 12  1  0  0  0  0
 12 17  2  0  0  0  0
 12 18  1  0  0  0  0
 13  9  2  0  0  0  0
 14  8  2  0  0  0  0
 15  7  1  0  0  0  0
 16  7  2  0  0  0  0
 17 16  1  0  0  0  0
 18 15  2  0  0  0  0
 19  1  1  0  0  0  0
 20  1  1  0  0  0  0
 21 11  1  0  0  0  0
 22 11  1  0  0  0  0
 23 11  1  0  0  0  0
 24  9  1  0  0  0  0
 25  8  1  0  0  0  0
M  END
>  <ID>
7993537

>  <Supplier>
ChemBridge

>  <clogP>
2.500000000000000e+000

>  <RB>
4

>  <tPSA>
7.144000000000000e+001

>  <Hacc>
4

>  <Hdon>
1

>  <LogSw>
-3.337000000000000e+000

>  <Group>
2

$$$$
9026965
 OpenBabel03312015312D

 23 24  0  0  0  0  0  0  0  0999 V2000
    0.4542    2.1583    0.0000 C   0  0  0  0  0  0  0  0  0  0  0  0
    1.1042    1.7833    0.0000 N   0  0  0  0  0  0  0  0  0  0  0  0
    1.7542    2.1583    0.0000 C   0  0  0  0  0  0  0  0  0  0  0  0
   -0.1958    1.7833    0.0000 C   0  0  0  0  0  0  0  0  0  0  0  0
   -2.7875    1.7833    0.0000 C   0  0  0  0  0  0  0  0  0  0  0  0
   -2.1375    2.1583    0.0000 N   0  0  0  0  0  0  0  0  0  0  0  0
    2.4042    1.7833    0.0000 C   0  0  0  0  0  0  0  0  0  0  0  0
    0.4542    2.9083    0.0000 O   0  0  0  0  0  0  0  0  0  0  0  0
    1.7542    2.9083    0.0000 C   0  0  0  0  0  0  0  0  0  0  0  0
   -0.8458    2.1583    0.0000 C   0  0  0  0  0  0  0  0  0  0  0  0
   -1.4875    1.7833    0.0000 C   0  0  0  0  0  0  0  0  0  0  0  0
   -2.7875    1.0333    0.0000 O   0  0  0  0  0  0  0  0  0  0  0  0
    3.0542    2.1583    0.0000 C   0  0  0  0  0  0  0  0  0  0  0  0
    2.4042    3.2833    0.0000 C   0  0  0  0  0  0  0  0  0  0  0  0
    3.0542    2.9083    0.0000 C   0  0  0  0  0  0  0  0  0  0  0  0
    2.4042    1.0333    0.0000 O   0  0  0  0  0  0  0  0  0  0  0  0
   -0.1958    1.0333    0.0000 C   0  0  0  0  0  0  0  0  0  0  0  0
   -0.8458    0.6583    0.0000 C   0  0  0  0  0  0  0  0  0  0  0  0
   -3.4375    2.1583    0.0000 C   0  0  0  0  0  0  0  0  0  0  0  0
   -1.4875    1.0333    0.0000 C   0  0  0  0  0  0  0  0  0  0  0  0
    2.4042    4.0250    0.0000 C   0  0  0  0  0  0  0  0  0  0  0  0
    3.0542    0.6583    0.0000 C   0  0  0  0  0  0  0  0  0  0  0  0
   -4.0958    1.7833    0.0000 C   0  0  0  0  0  0  0  0  0  0  0  0
  2  1  1  0  0  0  0
  3  2  1  0  0  0  0
  4  1  1  0  0  0  0
  5  6  1  0  0  0  0
  6 11  1  0  0  0  0
  7  3  1  0  0  0  0
  8  1  2  0  0  0  0
  9  3  2  0  0  0  0
 10  4  2  0  0  0  0
 11 10  1  0  0  0  0
 11 20  2  0  0  0  0
 12  5  2  0  0  0  0
 13  7  2  0  0  0  0
 13 15  1  0  0  0  0
 14  9  1  0  0  0  0
 15 14  2  0  0  0  0
 16  7  1  0  0  0  0
 17  4  1  0  0  0  0
 18 17  2  0  0  0  0
 19  5  1  0  0  0  0
 20 18  1  0  0  0  0
 21 14  1  0  0  0  0
 22 16  1  0  0  0  0
 23 19  1  0  0  0  0
M  END
>  <ID>
9026965

>  <Supplier>
ChemBridge

>  <clogP>
2.477000000000000e+000

>  <RB>
3

>  <tPSA>
6.743000000000001e+001

>  <Hacc>
3

>  <Hdon>
2

>  <LogSw>
-3.593000000000000e+000

>  <Group>
2

>  <Core>
146

$$$$
7993535
 OpenBabel03312015312D

 15 16  0  0  0  0  0  0  0  0999 V2000
    2.4542    1.7833    0.0000 C   0  0  0  0  0  0  0  0  0  0  0  0
    2.7667    1.0958    0.0000 C   0  0  0  0  0  0  0  0  0  0  0  0
    3.5125    1.1708    0.0000 N   0  0  0  0  0  0  0  0  0  0  0  0
    1.7250    1.9333    0.0000 C   0  0  0  0  0  0  0  0  0  0  0  0
    3.0167    2.2833    0.0000 C   0  0  0  0  0  0  0  0  0  0  0  0
    3.6667    1.9083    0.0000 C   0  0  0  0  0  0  0  0  0  0  0  0
    1.4917    2.6458    0.0000 C   0  0  0  0  0  0  0  0  0  0  0  0
    1.2250    1.3750    0.0000 O   0  0  0  0  0  0  0  0  0  0  0  0
    0.7625    2.8083    0.0000 O   0  0  0  0  0  0  0  0  0  0  0  0
    1.9917    3.2083    0.0000 N   0  0  0  0  0  0  0  0  0  0  0  0
    2.3917    0.4458    0.0000 C   0  0  0  0  0  0  0  0  0  0  0  0
    3.0167    3.0333    0.0000 C   0  0  0  0  0  0  0  0  0  0  0  0
    4.3167    2.2833    0.0000 C   0  0  0  0  0  0  0  0  0  0  0  0
    3.6667    3.4083    0.0000 C   0  0  0  0  0  0  0  0  0  0  0  0
    4.3167    3.0333    0.0000 C   0  0  0  0  0  0  0  0  0  0  0  0
  2  1  2  0  0  0  0
  3  2  1  0  0  0  0
  3  6  1  0  0  0  0
  4  1  1  0  0  0  0
  5  1  1  0  0  0  0
  6  5  2  0  0  0  0
  7  4  1  0  0  0  0
  8  4  2  0  0  0  0
  9  7  2  0  0  0  0
 10  7  1  0  0  0  0
 11  2  1  0  0  0  0
 12  5  1  0  0  0  0
 13  6  1  0  0  0  0
 13 15  2  0  0  0  0
 14 12  2  0  0  0  0
 15 14  1  0  0  0  0
M  END
>  <ID>
7993535

>  <Supplier>
ChemBridge

>  <clogP>
-2.300000000000000e-001

>  <RB>
2

>  <tPSA>
7.595000000000000e+001

>  <Hacc>
2

>  <Hdon>
2

>  <LogSw>
-1.790000000000000e+000

>  <Group>
2

>  <Core>
503

$$$$
5754935
 OpenBabel03312015312D

 24 25  0  0  0  0  0  0  0  0999 V2000
    0.9542    0.2833    0.0000 C   0  0  0  0  0  0  0  0  0  0  0  0
   -1.1625   -0.4542    0.0000 S   0  0  0  0  0  0  0  0  0  0  0  0
    1.3792    1.0208    0.0000 N   0  3  0  0  0  0  0  0  0  0  0  0
    1.3792   -0.4375    0.0000 C   0  0  0  0  0  0  0  0  0  0  0  0
    0.1167    0.2833    0.0000 C   0  0  0  0  0  0  0  0  0  0  0  0
   -0.3208   -0.4542    0.0000 C   0  0  0  0  0  0  0  0  0  0  0  0
    2.2167   -0.4375    0.0000 N   0  0  0  0  0  0  0  0  0  0  0  0
    0.9542   -1.1792    0.0000 C   0  0  0  0  0  0  0  0  0  0  0  0
   -1.1625    0.4000    0.0000 O   0  0  0  0  0  0  0  0  0  0  0  0
   -1.1625   -1.3000    0.0000 O   0  0  0  0  0  0  0  0  0  0  0  0
    2.2167    1.0208    0.0000 O   0  5  0  0  0  0  0  0  0  0  0  0
    0.9542    1.7458    0.0000 O   0  0  0  0  0  0  0  0  0  0  0  0
   -2.0000   -0.4542    0.0000 N   0  0  0  0  0  0  0  0  0  0  0  0
    0.1167   -1.1792    0.0000 C   0  0  0  0  0  0  0  0  0  0  0  0
    2.5167   -1.2167    0.0000 C   0  0  0  0  0  0  0  0  0  0  0  0
    2.6375    0.3000    0.0000 C   0  0  0  0  0  0  0  0  0  0  0  0
   -2.4208   -1.1792    0.0000 C   0  0  0  0  0  0  0  0  0  0  0  0
   -3.2625   -1.1542    0.0000 C   0  0  0  0  0  0  0  0  0  0  0  0
   -3.6833   -1.9000    0.0000 C   0  0  0  0  0  0  0  0  0  0  0  0
    3.3167   -1.4542    0.0000 C   0  0  0  0  0  0  0  0  0  0  0  0
    3.4542    0.4208    0.0000 C   0  0  0  0  0  0  0  0  0  0  0  0
   -4.5208   -1.9000    0.0000 C   0  0  0  0  0  0  0  0  0  0  0  0
    4.0792   -0.1792    0.0000 C   0  0  0  0  0  0  0  0  0  0  0  0
    3.9792   -0.9792    0.0000 C   0  0  0  0  0  0  0  0  0  0  0  0
  2  6  1  0  0  0  0
  3  1  1  0  0  0  0
  4  1  1  0  0  0  0
  5  1  2  0  0  0  0
  6  5  1  0  0  0  0
  7  4  1  0  0  0  0
  8  4  2  0  0  0  0
  8 14  1  0  0  0  0
  9  2  2  0  0  0  0
 10  2  2  0  0  0  0
 11  3  1  0  0  0  0
 12  3  2  0  0  0  0
 13  2  1  0  0  0  0
 14  6  2  0  0  0  0
 15  7  1  0  0  0  0
 16  7  1  0  0  0  0
 17 13  1  0  0  0  0
 18 17  1  0  0  0  0
 19 18  1  0  0  0  0
 20 15  1  0  0  0  0
 21 16  1  0  0  0  0
 22 19  1  0  0  0  0
 23 21  1  0  0  0  0
 23 24  1  0  0  0  0
 24 20  1  0  0  0  0
M  CHG  2   3   1  11  -1
M  END
>  <ID>
5754935

>  <Supplier>
ChemBridge

>  <clogP>
4.790000000000000e+000

>  <RB>
3

>  <tPSA>
9.255000000000003e+001

>  <Hacc>
5

>  <Hdon>
1

>  <LogSw>
-6.272000000000000e+000

>  <Group>
3

$$$$
7169727
 OpenBabel03312015312D

 29 31  0  0  0  0  0  0  0  0999 V2000
    2.8500   -1.7792    0.0000 S   0  0  0  0  0  0  0  0  0  0  0  0
    2.8500   -0.9542    0.0000 N   0  0  0  0  0  0  0  0  0  0  0  0
    3.5625   -0.5375    0.0000 C   0  0  0  0  0  0  0  0  0  0  0  0
    2.1292   -0.5417    0.0000 C   0  0  0  0  0  0  0  0  0  0  0  0
    4.2792   -0.9500    0.0000 C   0  0  0  0  0  0  0  0  0  0  0  0
    4.9917   -0.5375    0.0000 N   0  0  0  0  0  0  0  0  0  0  0  0
    1.4167   -0.9542    0.0000 C   0  0  0  0  0  0  0  0  0  0  0  0
    6.4167    0.2875    0.0000 N   0  0  0  0  0  0  0  0  0  0  0  0
    3.6750   -1.7792    0.0000 O   0  0  0  0  0  0  0  0  0  0  0  0
    3.2542   -2.4917    0.0000 O   0  0  0  0  0  0  0  0  0  0  0  0
    2.1292    0.2875    0.0000 C   0  0  0  0  0  0  0  0  0  0  0  0
    4.2792   -1.7750    0.0000 O   0  0  0  0  0  0  0  0  0  0  0  0
    5.7042   -0.9417    0.0000 C   0  0  0  0  0  0  0  0  0  0  0  0
    4.9917    0.2875    0.0000 C   0  0  0  0  0  0  0  0  0  0  0  0
    7.1292    0.7000    0.0000 C   0  0  0  0  0  0  0  0  0  0  0  0
    1.4167    0.7000    0.0000 C   0  0  0  0  0  0  0  0  0  0  0  0
    0.7042   -0.5417    0.0000 C   0  0  0  0  0  0  0  0  0  0  0  0
    5.7042    0.7083    0.0000 C   0  0  0  0  0  0  0  0  0  0  0  0
    6.4167   -0.5375    0.0000 C   0  0  0  0  0  0  0  0  0  0  0  0
    2.1292   -2.1875    0.0000 C   0  0  0  0  0  0  0  0  0  0  0  0
    2.8417    0.7083    0.0000 Cl  0  0  0  0  0  0  0  0  0  0  0  0
    0.7042    0.2875    0.0000 C   0  0  0  0  0  0  0  0  0  0  0  0
   -0.0125   -0.9500    0.0000 Cl  0  0  0  0  0  0  0  0  0  0  0  0
    7.8417    0.2833    0.0000 C   0  0  0  0  0  0  0  0  0  0  0  0
    7.8375   -0.5417    0.0000 C   0  0  0  0  0  0  0  0  0  0  0  0
    8.5542    0.6958    0.0000 C   0  0  0  0  0  0  0  0  0  0  0  0
    8.5417   -0.9542    0.0000 C   0  0  0  0  0  0  0  0  0  0  0  0
    9.2667    0.2833    0.0000 C   0  0  0  0  0  0  0  0  0  0  0  0
    9.2667   -0.5500    0.0000 C   0  0  0  0  0  0  0  0  0  0  0  0
  2  1  1  0  0  0  0
  3  2  1  0  0  0  0
  4  2  1  0  0  0  0
  5  3  1  0  0  0  0
  6  5  1  0  0  0  0
  7  4  2  0  0  0  0
  8 18  1  0  0  0  0
  9  1  2  0  0  0  0
 10  1  2  0  0  0  0
 11  4  1  0  0  0  0
 12  5  2  0  0  0  0
 13  6  1  0  0  0  0
 14  6  1  0  0  0  0
 15  8  1  0  0  0  0
 16 11  2  0  0  0  0
 17  7  1  0  0  0  0
 17 22  2  0  0  0  0
 18 14  1  0  0  0  0
 19 13  1  0  0  0  0
 19  8  1  0  0  0  0
 20  1  1  0  0  0  0
 21 11  1  0  0  0  0
 22 16  1  0  0  0  0
 23 17  1  0  0  0  0
 24 15  1  0  0  0  0
 25 24  2  0  0  0  0
 26 24  1  0  0  0  0
 27 25  1  0  0  0  0
 27 29  2  0  0  0  0
 28 26  2  0  0  0  0
 29 28  1  0  0  0  0
M  END
>  <ID>
7169727

>  <Supplier>
ChemBridge

>  <clogP>
4.010000000000000e+000

>  <RB>
5

>  <tPSA>
6.093000000000000e+001

>  <Hacc>
4

>  <Hdon>
0

>  <LogSw>
-5.951000000000001e+000

>  <Group>
2

>  <Core>
557

$$$$
7993532
 OpenBabel03312015312D

 21 23  0  0  0  0  0  0  0  0999 V2000
    2.6042    1.5458    0.0000 C   0  0  0  0  0  0  0  0  0  0  0  0
    3.1625    1.0458    0.0000 C   0  0  0  0  0  0  0  0  0  0  0  0
    3.8750    1.2833    0.0000 C   0  0  0  0  0  0  0  0  0  0  0  0
    2.6792    2.2958    0.0000 C   0  0  0  0  0  0  0  0  0  0  0  0
    1.9917    2.6000    0.0000 N   0  0  0  0  0  0  0  0  0  0  0  0
    1.8667    1.3958    0.0000 C   0  0  0  0  0  0  0  0  0  0  0  0
    4.4292    0.7750    0.0000 N   0  0  0  0  0  0  0  0  0  0  0  0
    1.4917    2.0458    0.0000 C   0  0  0  0  0  0  0  0  0  0  0  0
    4.0292    2.0208    0.0000 O   0  0  0  0  0  0  0  0  0  0  0  0
    3.0042    0.3125    0.0000 O   0  0  0  0  0  0  0  0  0  0  0  0
    5.1417    1.0083    0.0000 C   0  0  0  0  0  0  0  0  0  0  0  0
    1.4917    0.7458    0.0000 C   0  0  0  0  0  0  0  0  0  0  0  0
    0.7417    2.0458    0.0000 C   0  0  0  0  0  0  0  0  0  0  0  0
    5.6625    0.4708    0.0000 C   0  0  0  0  0  0  0  0  0  0  0  0
    5.2417    1.7500    0.0000 C   0  0  0  0  0  0  0  0  0  0  0  0
    0.7417    0.7458    0.0000 C   0  0  0  0  0  0  0  0  0  0  0  0
    0.3667    1.3958    0.0000 C   0  0  0  0  0  0  0  0  0  0  0  0
    5.8917    2.1333    0.0000 C   0  0  0  0  0  0  0  0  0  0  0  0
    6.4125    0.5333    0.0000 C   0  0  0  0  0  0  0  0  0  0  0  0
    6.8250    1.1583    0.0000 C   0  0  0  0  0  0  0  0  0  0  0  0
    6.5917    1.8708    0.0000 C   0  0  0  0  0  0  0  0  0  0  0  0
  2  1  1  0  0  0  0
  3  2  1  0  0  0  0
  4  1  2  0  0  0  0
  5  4  1  0  0  0  0
  5  8  1  0  0  0  0
  6  1  1  0  0  0  0
  7  3  1  0  0  0  0
  8  6  2  0  0  0  0
  9  3  2  0  0  0  0
 10  2  2  0  0  0  0
 11  7  1  0  0  0  0
 12  6  1  0  0  0  0
 13  8  1  0  0  0  0
 13 17  2  0  0  0  0
 14 11  1  0  0  0  0
 15 11  1  0  0  0  0
 16 12  2  0  0  0  0
 17 16  1  0  0  0  0
 18 15  1  0  0  0  0
 19 14  1  0  0  0  0
 20 19  1  0  0  0  0
 21 18  1  0  0  0  0
 21 20  1  0  0  0  0
M  END
>  <ID>
7993532

>  <Supplier>
ChemBridge

>  <clogP>
3.520000000000000e+000

>  <RB>
3

>  <tPSA>
6.195999999999997e+001

>  <Hacc>
2

>  <Hdon>
2

>  <LogSw>
-4.280000000000000e+000

>  <Group>
2

>  <Core>
503

$$$$
7993531
 OpenBabel03312015312D

 19 20  0  0  0  0  0  0  0  0999 V2000
    2.5917    2.6500    0.0000 N   0  0  0  0  0  0  0  0  0  0  0  0
    2.5917    1.9000    0.0000 C   0  0  0  0  0  0  0  0  0  0  0  0
    3.2417    3.0250    0.0000 C   0  0  0  0  0  0  0  0  0  0  0  0
    3.2417    1.5250    0.0000 N   0  0  0  0  0  0  0  0  0  0  0  0
    3.8917    2.6500    0.0000 N   0  0  0  0  0  0  0  0  0  0  0  0
    3.8917    1.9000    0.0000 C   0  0  0  0  0  0  0  0  0  0  0  0
    1.9417    1.5250    0.0000 N   0  0  0  0  0  0  0  0  0  0  0  0
    3.2417    3.7750    0.0000 N   0  0  0  0  0  0  0  0  0  0  0  0
    4.5417    1.5250    0.0000 S   0  0  0  0  0  0  0  0  0  0  0  0
    0.6500    0.7750    0.0000 O   0  0  0  0  0  0  0  0  0  0  0  0
    1.9417    0.7750    0.0000 C   0  0  0  0  0  0  0  0  0  0  0  0
    1.2917    1.9000    0.0000 C   0  0  0  0  0  0  0  0  0  0  0  0
    5.1917    1.9000    0.0000 C   0  0  0  0  0  0  0  0  0  0  0  0
    3.8917    4.1417    0.0000 C   0  0  0  0  0  0  0  0  0  0  0  0
    2.5917    4.1417    0.0000 C   0  0  0  0  0  0  0  0  0  0  0  0
    1.2917    0.4000    0.0000 C   0  0  0  0  0  0  0  0  0  0  0  0
    0.6500    1.5250    0.0000 C   0  0  0  0  0  0  0  0  0  0  0  0
    5.8417    1.5250    0.0000 C   0  0  0  0  0  0  0  0  0  0  0  0
    5.1917    2.6500    0.0000 C   0  0  0  0  0  0  0  0  0  0  0  0
  2  1  1  0  0  0  0
  3  1  2  0  0  0  0
  4  2  2  0  0  0  0
  4  6  1  0  0  0  0
  5  3  1  0  0  0  0
  6  5  2  0  0  0  0
  7  2  1  0  0  0  0
  8  3  1  0  0  0  0
  9  6  1  0  0  0  0
 10 17  1  0  0  0  0
 10 16  1  0  0  0  0
 11  7  1  0  0  0  0
 12  7  1  0  0  0  0
 13  9  1  0  0  0  0
 14  8  1  0  0  0  0
 15  8  1  0  0  0  0
 16 11  1  0  0  0  0
 17 12  1  0  0  0  0
 18 13  1  0  0  0  0
 19 13  1  0  0  0  0
M  END
>  <ID>
7993531

>  <Supplier>
ChemBridge

>  <clogP>
2.410000000000000e+000

>  <RB>
2

>  <tPSA>
5.438000000000002e+001

>  <Hacc>
4

>  <Hdon>
0

>  <LogSw>
-3.325000000000000e+000

>  <Group>
2

>  <Core>
026

$$$$
7169724
 OpenBabel03312015312D

 27 29  0  0  0  0  0  0  0  0999 V2000
    5.9292   -3.3875    0.0000 C   0  0  0  0  0  0  0  0  0  0  0  0
    4.7792   -3.7792    0.0000 N   0  0  0  0  0  0  0  0  0  0  0  0
    5.5042   -4.0042    0.0000 C   0  0  0  0  0  0  0  0  0  0  0  0
    4.7792   -3.0292    0.0000 N   0  0  0  0  0  0  0  0  0  0  0  0
    7.1000   -5.3042    0.0000 C   0  0  0  0  0  0  0  0  0  0  0  0
    5.4792   -2.7917    0.0000 C   0  0  0  0  0  0  0  0  0  0  0  0
    6.7375   -5.9667    0.0000 N   0  3  0  0  0  0  0  0  0  0  0  0
    7.8500   -5.2917    0.0000 C   0  0  0  0  0  0  0  0  0  0  0  0
    6.6792   -3.3667    0.0000 C   0  0  0  0  0  0  0  0  0  0  0  0
    4.1792   -4.2292    0.0000 C   0  0  0  0  0  0  0  0  0  0  0  0
    8.2042   -4.6292    0.0000 C   0  0  0  0  0  0  0  0  0  0  0  0
    7.0667   -4.0042    0.0000 C   0  0  0  0  0  0  0  0  0  0  0  0
    6.7042   -4.6667    0.0000 C   0  0  0  0  0  0  0  0  0  0  0  0
    5.9875   -5.9875    0.0000 O   0  5  0  0  0  0  0  0  0  0  0  0
    5.7417   -4.7125    0.0000 O   0  0  0  0  0  0  0  0  0  0  0  0
    7.1292   -6.6042    0.0000 O   0  0  0  0  0  0  0  0  0  0  0  0
    7.8167   -3.9917    0.0000 C   0  0  0  0  0  0  0  0  0  0  0  0
    5.6917   -2.0792    0.0000 O   0  0  0  0  0  0  0  0  0  0  0  0
    3.4917   -3.9292    0.0000 C   0  0  0  0  0  0  0  0  0  0  0  0
    8.2375   -5.9292    0.0000 O   0  0  0  0  0  0  0  0  0  0  0  0
    8.9542   -4.6167    0.0000 O   0  0  0  0  0  0  0  0  0  0  0  0
    2.8917   -4.3792    0.0000 C   0  0  0  0  0  0  0  0  0  0  0  0
    4.2667   -4.9750    0.0000 C   0  0  0  0  0  0  0  0  0  0  0  0
    3.6667   -5.4250    0.0000 C   0  0  0  0  0  0  0  0  0  0  0  0
    2.9792   -5.1250    0.0000 C   0  0  0  0  0  0  0  0  0  0  0  0
    2.2042   -4.0792    0.0000 C   0  0  0  0  0  0  0  0  0  0  0  0
    9.3417   -5.2542    0.0000 C   0  0  0  0  0  0  0  0  0  0  0  0
  2  3  1  0  0  0  0
  2  4  1  0  0  0  0
  3  1  1  0  0  0  0
  4  6  1  0  0  0  0
  5 13  2  0  0  0  0
  6  1  1  0  0  0  0
  7  5  1  0  0  0  0
  8 11  2  0  0  0  0
  8  5  1  0  0  0  0
  9  1  2  0  0  0  0
 10  2  1  0  0  0  0
 11 17  1  0  0  0  0
 12  9  1  0  0  0  0
 13 12  1  0  0  0  0
 14  7  1  0  0  0  0
 15  3  2  0  0  0  0
 16  7  2  0  0  0  0
 17 12  2  0  0  0  0
 18  6  2  0  0  0  0
 19 10  1  0  0  0  0
 20  8  1  0  0  0  0
 21 11  1  0  0  0  0
 22 19  2  0  0  0  0
 23 10  2  0  0  0  0
 24 23  1  0  0  0  0
 25 24  2  0  0  0  0
 25 22  1  0  0  0  0
 26 22  1  0  0  0  0
 27 21  1  0  0  0  0
M  CHG  2   7   1  14  -1
M  END
>  <ID>
7169724

>  <Supplier>
ChemBridge

>  <clogP>
2.500000000000000e+000

>  <RB>
2

>  <tPSA>
1.220100000000000e+002

>  <Hacc>
6

>  <Hdon>
2

>  <LogSw>
-4.028000000000000e+000

>  <Group>
1

>  <Core>
048

$$$$
9023554
 OpenBabel03312015312D

 21 22  0  0  0  0  0  0  0  0999 V2000
    3.2000    2.4208    0.0000 C   0  0  0  0  0  0  0  0  0  0  0  0
    2.8250    1.7708    0.0000 C   0  0  0  0  0  0  0  0  0  0  0  0
    3.9500    2.4208    0.0000 C   0  0  0  0  0  0  0  0  0  0  0  0
    4.3250    1.7708    0.0000 S   0  0  0  0  0  0  0  0  0  0  0  0
    3.2000    1.1208    0.0000 O   0  0  0  0  0  0  0  0  0  0  0  0
    2.0667    1.7708    0.0000 N   0  0  0  0  0  0  0  0  0  0  0  0
    5.0750    1.7708    0.0000 C   0  0  0  0  0  0  0  0  0  0  0  0
    2.8250    3.0708    0.0000 C   0  0  0  0  0  0  0  0  0  0  0  0
    5.4500    1.1208    0.0000 C   0  0  0  0  0  0  0  0  0  0  0  0
    0.5750    0.4708    0.0000 O   0  0  0  0  0  0  0  0  0  0  0  0
    4.3250    3.0708    0.0000 C   0  0  0  0  0  0  0  0  0  0  0  0
    1.7000    1.1208    0.0000 C   0  0  0  0  0  0  0  0  0  0  0  0
    0.9500    1.1208    0.0000 C   0  0  0  0  0  0  0  0  0  0  0  0
    5.0750    0.4708    0.0000 C   0  0  0  0  0  0  0  0  0  0  0  0
    6.2000    1.1208    0.0000 C   0  0  0  0  0  0  0  0  0  0  0  0
   -0.1750    0.4708    0.0000 C   0  0  0  0  0  0  0  0  0  0  0  0
    3.2000    3.7208    0.0000 C   0  0  0  0  0  0  0  0  0  0  0  0
    3.9500    3.7208    0.0000 C   0  0  0  0  0  0  0  0  0  0  0  0
    5.4500   -0.1792    0.0000 C   0  0  0  0  0  0  0  0  0  0  0  0
    6.5750    0.4708    0.0000 C   0  0  0  0  0  0  0  0  0  0  0  0
    6.2000   -0.1792    0.0000 C   0  0  0  0  0  0  0  0  0  0  0  0
  2  1  1  0  0  0  0
  3  1  1  0  0  0  0
  4  3  1  0  0  0  0
  5  2  2  0  0  0  0
  6  2  1  0  0  0  0
  7  4  1  0  0  0  0
  8  1  2  0  0  0  0
  9  7  1  0  0  0  0
 10 13  1  0  0  0  0
 11  3  2  0  0  0  0
 12  6  1  0  0  0  0
 13 12  1  0  0  0  0
 14  9  2  0  0  0  0
 15  9  1  0  0  0  0
 16 10  1  0  0  0  0
 17  8  1  0  0  0  0
 18 17  2  0  0  0  0
 18 11  1  0  0  0  0
 19 14  1  0  0  0  0
 19 21  2  0  0  0  0
 20 15  2  0  0  0  0
 21 20  1  0  0  0  0
M  END
>  <ID>
9023554

>  <Supplier>
ChemBridge

>  <clogP>
2.414000000000000e+000

>  <RB>
6

>  <tPSA>
3.833000000000000e+001

>  <Hacc>
2

>  <Hdon>
1

>  <LogSw>
-3.460000000000000e+000

>  <Group>
2

$$$$
9105607
 OpenBabel03312015312D

 25 27  0  0  0  0  0  0  0  0999 V2000
    5.1375    3.3833    0.0000 C   0  0  0  0  0  0  0  0  0  0  0  0
    4.7625    4.0250    0.0000 N   0  0  0  0  0  0  0  0  0  0  0  0
    4.7625    2.7333    0.0000 N   0  0  0  0  0  0  0  0  0  0  0  0
    3.6375    3.3833    0.0000 N   0  0  0  0  0  0  0  0  0  0  0  0
    4.0125    4.0250    0.0000 C   0  0  0  0  0  0  0  0  0  0  0  0
    4.0125    2.7333    0.0000 C   0  0  0  0  0  0  0  0  0  0  0  0
    2.8875    2.0833    0.0000 N   0  0  0  0  0  0  0  0  0  0  0  0
    5.8875    3.3833    0.0000 N   0  0  0  0  0  0  0  0  0  0  0  0
    1.3875    2.0833    0.0000 N   0  0  0  0  0  0  0  0  0  0  0  0
    3.6375    2.0833    0.0000 C   0  0  0  0  0  0  0  0  0  0  0  0
    3.6375    4.6667    0.0000 N   0  0  0  0  0  0  0  0  0  0  0  0
    6.2625    2.7333    0.0000 C   0  0  0  0  0  0  0  0  0  0  0  0
    2.5042    1.4333    0.0000 C   0  0  0  0  0  0  0  0  0  0  0  0
    2.5042    2.7333    0.0000 C   0  0  0  0  0  0  0  0  0  0  0  0
    1.7625    1.4333    0.0000 C   0  0  0  0  0  0  0  0  0  0  0  0
    1.7625    2.7333    0.0000 C   0  0  0  0  0  0  0  0  0  0  0  0
    7.0125    1.4333    0.0000 C   0  0  0  0  0  0  0  0  0  0  0  0
    7.0125    2.7333    0.0000 C   0  0  0  0  0  0  0  0  0  0  0  0
    5.8875    2.0833    0.0000 C   0  0  0  0  0  0  0  0  0  0  0  0
    7.3875    2.0833    0.0000 C   0  0  0  0  0  0  0  0  0  0  0  0
    6.2625    1.4333    0.0000 C   0  0  0  0  0  0  0  0  0  0  0  0
    0.6375    2.0833    0.0000 C   0  0  0  0  0  0  0  0  0  0  0  0
    7.3875    0.7833    0.0000 C   0  0  0  0  0  0  0  0  0  0  0  0
    0.2625    2.7333    0.0000 C   0  0  0  0  0  0  0  0  0  0  0  0
    7.0125    0.1333    0.0000 C   0  0  0  0  0  0  0  0  0  0  0  0
  2  1  1  0  0  0  0
  3  1  2  0  0  0  0
  4  6  2  0  0  0  0
  5  2  2  0  0  0  0
  5  4  1  0  0  0  0
  6  3  1  0  0  0  0
  7 10  1  0  0  0  0
  8  1  1  0  0  0  0
  9 16  1  0  0  0  0
 10  6  1  0  0  0  0
 11  5  1  0  0  0  0
 12  8  1  0  0  0  0
 13  7  1  0  0  0  0
 14  7  1  0  0  0  0
 15 13  1  0  0  0  0
 15  9  1  0  0  0  0
 16 14  1  0  0  0  0
 17 21  1  0  0  0  0
 17 20  2  0  0  0  0
 18 12  2  0  0  0  0
 19 12  1  0  0  0  0
 20 18  1  0  0  0  0
 21 19  2  0  0  0  0
 22  9  1  0  0  0  0
 23 17  1  0  0  0  0
 24 22  1  0  0  0  0
 25 23  1  0  0  0  0
M  END
>  <ID>
9105607

>  <Supplier>
ChemBridge

>  <clogP>
3.617000000000000e+000

>  <RB>
4

>  <tPSA>
8.320000000000000e+001

>  <Hacc>
5

>  <Hdon>
2

>  <LogSw>
-3.771000000000000e+000

>  <Group>
2

>  <Core>
426

$$$$
7646889
 OpenBabel03312015312D

 28 30  0  0  0  0  0  0  0  0999 V2000
    5.3417   -6.0417    0.0000 C   0  0  0  0  0  0  0  0  0  0  0  0
    6.1042   -6.3792    0.0000 C   0  0  0  0  0  0  0  0  0  0  0  0
    1.7750   -4.8042    0.0000 C   0  0  0  0  0  0  0  0  0  0  0  0
    2.4875   -5.2167    0.0000 N   0  0  0  0  0  0  0  0  0  0  0  0
    1.0667   -5.2167    0.0000 C   0  0  0  0  0  0  0  0  0  0  0  0
    5.4292   -5.2250    0.0000 S   0  0  0  0  0  0  0  0  0  0  0  0
    1.7750   -6.4417    0.0000 N   0  0  0  0  0  0  0  0  0  0  0  0
    4.6292   -6.4542    0.0000 N   0  0  0  0  0  0  0  0  0  0  0  0
    2.4875   -6.0375    0.0000 C   0  0  0  0  0  0  0  0  0  0  0  0
    6.6417   -5.7750    0.0000 C   0  0  0  0  0  0  0  0  0  0  0  0
    6.2875   -7.1917    0.0000 C   0  0  0  0  0  0  0  0  0  0  0  0
    6.2375   -5.0542    0.0000 C   0  0  0  0  0  0  0  0  0  0  0  0
    3.9167   -6.0417    0.0000 C   0  0  0  0  0  0  0  0  0  0  0  0
    1.0625   -6.0292    0.0000 C   0  0  0  0  0  0  0  0  0  0  0  0
    3.9125   -5.2167    0.0000 C   0  0  0  0  0  0  0  0  0  0  0  0
    3.2000   -4.8042    0.0000 C   0  0  0  0  0  0  0  0  0  0  0  0
    1.7750   -3.9917    0.0000 O   0  0  0  0  0  0  0  0  0  0  0  0
    5.6750   -7.7417    0.0000 O   0  0  0  0  0  0  0  0  0  0  0  0
    3.2000   -6.4542    0.0000 O   0  0  0  0  0  0  0  0  0  0  0  0
    7.0750   -7.4417    0.0000 O   0  0  0  0  0  0  0  0  0  0  0  0
    0.3500   -4.8000    0.0000 C   0  0  0  0  0  0  0  0  0  0  0  0
    6.6500   -4.3417    0.0000 C   0  0  0  0  0  0  0  0  0  0  0  0
    0.3542   -6.4542    0.0000 C   0  0  0  0  0  0  0  0  0  0  0  0
    7.2500   -8.2500    0.0000 C   0  0  0  0  0  0  0  0  0  0  0  0
   -0.3708   -5.2167    0.0000 C   0  0  0  0  0  0  0  0  0  0  0  0
    7.4750   -4.3417    0.0000 C   0  0  0  0  0  0  0  0  0  0  0  0
    8.0292   -8.5042    0.0000 C   0  0  0  0  0  0  0  0  0  0  0  0
   -0.3625   -6.0417    0.0000 C   0  0  0  0  0  0  0  0  0  0  0  0
  2  1  2  0  0  0  0
  3  4  1  0  0  0  0
  4 16  1  0  0  0  0
  5  3  1  0  0  0  0
  5 14  1  0  0  0  0
  6  1  1  0  0  0  0
  7  9  2  0  0  0  0
  8  1  1  0  0  0  0
  9  4  1  0  0  0  0
 10  2  1  0  0  0  0
 11  2  1  0  0  0  0
 12  6  1  0  0  0  0
 12 10  2  0  0  0  0
 13  8  1  0  0  0  0
 14  7  1  0  0  0  0
 15 13  1  0  0  0  0
 16 15  1  0  0  0  0
 17  3  2  0  0  0  0
 18 11  2  0  0  0  0
 19 13  2  0  0  0  0
 20 11  1  0  0  0  0
 21  5  2  0  0  0  0
 22 12  1  0  0  0  0
 23 14  2  0  0  0  0
 24 20  1  0  0  0  0
 25 21  1  0  0  0  0
 25 28  2  0  0  0  0
 26 22  1  0  0  0  0
 27 24  1  0  0  0  0
 28 23  1  0  0  0  0
M  END
>  <ID>
7646889

>  <Supplier>
ChemBridge

>  <clogP>
3.614000000000000e+000

>  <RB>
5

>  <tPSA>
9.029000000000002e+001

>  <Hacc>
5

>  <Hdon>
1

>  <LogSw>
-4.477000000000000e+000

>  <Group>
1

>  <Core>
098

$$$$
9158231
 OpenBabel03312015312D

 25 27  0  0  0  0  0  0  0  0999 V2000
    7.6000    2.3208    0.0000 S   0  0  0  0  0  0  0  0  0  0  0  0
    3.7042    3.0708    0.0000 N   0  0  0  0  0  0  0  0  0  0  0  0
    4.3542    3.4458    0.0000 C   0  0  0  0  0  0  0  0  0  0  0  0
    6.9542    1.9458    0.0000 N   0  0  0  0  0  0  0  0  0  0  0  0
    3.0542    3.4458    0.0000 C   0  0  0  0  0  0  0  0  0  0  0  0
    8.1292    1.7958    0.0000 O   0  0  0  0  0  0  0  0  0  0  0  0
    8.1750    2.8083    0.0000 O   0  0  0  0  0  0  0  0  0  0  0  0
    2.4042    3.0708    0.0000 C   0  0  0  0  0  0  0  0  0  0  0  0
    5.0042    3.0708    0.0000 C   0  0  0  0  0  0  0  0  0  0  0  0
    6.3042    2.3208    0.0000 C   0  0  0  0  0  0  0  0  0  0  0  0
    3.7042    2.3208    0.0000 C   0  0  0  0  0  0  0  0  0  0  0  0
    4.3542    4.1917    0.0000 O   0  0  0  0  0  0  0  0  0  0  0  0
    2.4042    2.3208    0.0000 C   0  0  0  0  0  0  0  0  0  0  0  0
    3.0542    1.9458    0.0000 C   0  0  0  0  0  0  0  0  0  0  0  0
    5.6542    3.4458    0.0000 C   0  0  0  0  0  0  0  0  0  0  0  0
    5.0042    2.3208    0.0000 C   0  0  0  0  0  0  0  0  0  0  0  0
    5.6542    1.9458    0.0000 C   0  0  0  0  0  0  0  0  0  0  0  0
    6.3042    3.0708    0.0000 C   0  0  0  0  0  0  0  0  0  0  0  0
    7.1667    2.9333    0.0000 C   0  0  0  0  0  0  0  0  0  0  0  0
    6.9542    1.1958    0.0000 C   0  0  0  0  0  0  0  0  0  0  0  0
    1.7542    3.4458    0.0000 C   0  0  0  0  0  0  0  0  0  0  0  0
    1.7542    1.9458    0.0000 C   0  0  0  0  0  0  0  0  0  0  0  0
    6.3042    0.8208    0.0000 C   0  0  0  0  0  0  0  0  0  0  0  0
    1.1042    3.0708    0.0000 C   0  0  0  0  0  0  0  0  0  0  0  0
    1.1042    2.3208    0.0000 C   0  0  0  0  0  0  0  0  0  0  0  0
  2  3  1  0  0  0  0
  3  9  1  0  0  0  0
  4  1  1  0  0  0  0
  5  2  1  0  0  0  0
  6  1  2  0  0  0  0
  7  1  2  0  0  0  0
  8  5  1  0  0  0  0
  8 13  2  0  0  0  0
  9 15  2  0  0  0  0
  9 16  1  0  0  0  0
 10  4  1  0  0  0  0
 11  2  1  0  0  0  0
 12  3  2  0  0  0  0
 13 14  1  0  0  0  0
 14 11  1  0  0  0  0
 15 18  1  0  0  0  0
 16 17  2  0  0  0  0
 17 10  1  0  0  0  0
 18 10  2  0  0  0  0
 19  1  1  0  0  0  0
 20  4  1  0  0  0  0
 21  8  1  0  0  0  0
 22 13  1  0  0  0  0
 23 20  1  0  0  0  0
 24 21  2  0  0  0  0
 25 22  2  0  0  0  0
 25 24  1  0  0  0  0
M  END
>  <ID>
9158231

>  <Supplier>
ChemBridge

>  <clogP>
2.795000000000000e+000

>  <RB>
2

>  <tPSA>
5.769000000000000e+001

>  <Hacc>
3

>  <Hdon>
0

>  <LogSw>
-4.201000000000001e+000

>  <Group>
2

>  <Core>
154

$$$$
9072934
 OpenBabel03312015312D

 21 23  0  0  0  0  0  0  0  0999 V2000
    3.8292    1.5333    0.0000 N   0  0  0  0  0  0  0  0  0  0  0  0
    4.5167    1.2250    0.0000 N   0  0  0  0  0  0  0  0  0  0  0  0
    6.8917    2.4333    0.0000 C   0  0  0  0  0  0  0  0  0  0  0  0
    5.0167    1.7833    0.0000 C   0  0  0  0  0  0  0  0  0  0  0  0
    7.2667    3.0833    0.0000 N   0  0  0  0  0  0  0  0  0  0  0  0
    3.9125    2.2750    0.0000 S   0  0  0  0  0  0  0  0  0  0  0  0
    4.6417    2.4333    0.0000 C   0  0  0  0  0  0  0  0  0  0  0  0
    6.1417    2.4333    0.0000 C   0  0  0  0  0  0  0  0  0  0  0  0
    5.7667    1.7833    0.0000 C   0  0  0  0  0  0  0  0  0  0  0  0
    8.0167    3.0833    0.0000 C   0  0  0  0  0  0  0  0  0  0  0  0
    7.2667    1.7833    0.0000 O   0  0  0  0  0  0  0  0  0  0  0  0
    5.0167    3.0833    0.0000 C   0  0  0  0  0  0  0  0  0  0  0  0
    5.7667    3.0833    0.0000 C   0  0  0  0  0  0  0  0  0  0  0  0
    8.3917    2.4333    0.0000 C   0  0  0  0  0  0  0  0  0  0  0  0
    8.0167    1.7833    0.0000 O   0  0  0  0  0  0  0  0  0  0  0  0
    8.3917    3.7333    0.0000 C   0  0  0  0  0  0  0  0  0  0  0  0
    9.1417    2.4333    0.0000 C   0  0  0  0  0  0  0  0  0  0  0  0
    8.3917    1.1333    0.0000 C   0  0  0  0  0  0  0  0  0  0  0  0
    8.0167    0.4833    0.0000 C   0  0  0  0  0  0  0  0  0  0  0  0
    9.1417    3.7333    0.0000 C   0  0  0  0  0  0  0  0  0  0  0  0
    9.5167    3.0833    0.0000 C   0  0  0  0  0  0  0  0  0  0  0  0
  2  1  2  0  0  0  0
  3  8  1  0  0  0  0
  4  2  1  0  0  0  0
  5  3  1  0  0  0  0
  6  1  1  0  0  0  0
  7  6  1  0  0  0  0
  7  4  2  0  0  0  0
  8  9  2  0  0  0  0
  9  4  1  0  0  0  0
 10  5  1  0  0  0  0
 11  3  2  0  0  0  0
 12  7  1  0  0  0  0
 13 12  2  0  0  0  0
 13  8  1  0  0  0  0
 14 10  1  0  0  0  0
 15 14  1  0  0  0  0
 16 10  2  0  0  0  0
 17 14  2  0  0  0  0
 17 21  1  0  0  0  0
 18 15  1  0  0  0  0
 19 18  1  0  0  0  0
 20 16  1  0  0  0  0
 21 20  2  0  0  0  0
M  END
>  <ID>
9072934

>  <Supplier>
ChemBridge

>  <clogP>
2.379000000000000e+000

>  <RB>
2

>  <tPSA>
6.411000000000000e+001

>  <Hacc>
4

>  <Hdon>
1

>  <LogSw>
-3.415000000000000e+000

>  <Group>
2

$$$$
7646883
 OpenBabel03312015312D

 23 24  0  0  0  0  0  0  0  0999 V2000
   -1.7708    1.3000    0.0000 C   0  0  0  0  0  0  0  0  0  0  0  0
   -2.4833    0.8875    0.0000 C   0  0  3  0  0  0  0  0  0  0  0  0
   -2.4833    0.0583    0.0000 C   0  0  0  0  0  0  0  0  0  0  0  0
   -1.0500    0.8875    0.0000 N   0  0  0  0  0  0  0  0  0  0  0  0
   -1.7833    2.1250    0.0000 O   0  0  0  0  0  0  0  0  0  0  0  0
   -1.7708   -0.3542    0.0000 O   0  0  0  0  0  0  0  0  0  0  0  0
   -3.2000    1.3000    0.0000 C   0  0  0  0  0  0  0  0  0  0  0  0
   -0.3333    1.3083    0.0000 C   0  0  0  0  0  0  0  0  0  0  0  0
   -3.1958   -0.3542    0.0000 O   0  0  0  0  0  0  0  0  0  0  0  0
    1.1000    2.1333    0.0000 C   0  0  0  0  0  0  0  0  0  0  0  0
    0.3875    0.8958    0.0000 C   0  0  0  0  0  0  0  0  0  0  0  0
   -0.3333    2.1333    0.0000 C   0  0  0  0  0  0  0  0  0  0  0  0
    1.1000    1.3083    0.0000 C   0  0  0  0  0  0  0  0  0  0  0  0
    0.3875    2.5458    0.0000 C   0  0  0  0  0  0  0  0  0  0  0  0
    1.8167    2.5500    0.0000 O   0  0  0  0  0  0  0  0  0  0  0  0
   -3.0833    2.1208    0.0000 C   0  0  0  0  0  0  0  0  0  0  0  0
   -3.9208    0.8875    0.0000 C   0  0  0  0  0  0  0  0  0  0  0  0
   -3.9125    0.0583    0.0000 C   0  0  0  0  0  0  0  0  0  0  0  0
    1.8167    3.3833    0.0000 C   0  0  0  0  0  0  0  0  0  0  0  0
   -3.6458    2.7208    0.0000 C   0  0  0  0  0  0  0  0  0  0  0  0
   -4.6875    1.1958    0.0000 C   0  0  0  0  0  0  0  0  0  0  0  0
   -4.9333    1.9833    0.0000 C   0  0  0  0  0  0  0  0  0  0  0  0
   -4.4583    2.6583    0.0000 C   0  0  0  0  0  0  0  0  0  0  0  0
  2  1  1  0  0  0  0
  3  2  1  0  0  0  0
  4  1  1  0  0  0  0
  5  1  2  0  0  0  0
  6  3  2  0  0  0  0
  7  2  1  0  0  0  0
  8  4  1  0  0  0  0
  9  3  1  0  0  0  0
 10 14  2  0  0  0  0
 11  8  1  0  0  0  0
 12  8  2  0  0  0  0
 13 11  2  0  0  0  0
 13 10  1  0  0  0  0
 14 12  1  0  0  0  0
 15 10  1  0  0  0  0
 16  7  1  0  0  0  0
 17  7  1  0  0  0  0
 18  9  1  0  0  0  0
 19 15  1  0  0  0  0
 20 16  1  0  0  0  0
 21 17  1  0  0  0  0
 22 21  1  0  0  0  0
 23 20  1  0  0  0  0
 23 22  1  0  0  0  0
M  END
>  <ID>
7646883

>  <Supplier>
ChemBridge

>  <clogP>
4.351999999999999e+000

>  <RB>
4

>  <tPSA>
6.463000000000000e+001

>  <Hacc>
4

>  <Hdon>
1

>  <LogSw>
-4.859000000000000e+000

>  <Group>
3

$$$$
7932741
 OpenBabel03312015312D

 29 34  0  0  0  0  0  0  0  0999 V2000
    3.4917    1.5458    0.0000 C   0  0  0  0  0  0  0  0  0  0  0  0
    3.4917    2.2958    0.0000 C   0  0  0  0  0  0  0  0  0  0  0  0
    4.6417    1.9208    0.0000 C   0  0  0  0  0  0  0  0  0  0  0  0
    2.8417    2.6708    0.0000 N   0  0  0  0  0  0  0  0  0  0  0  0
    4.2042    2.5250    0.0000 S   0  0  0  0  0  0  0  0  0  0  0  0
    4.2042    1.3125    0.0000 C   0  0  0  0  0  0  0  0  0  0  0  0
    2.1917    2.2958    0.0000 C   0  0  0  0  0  0  0  0  0  0  0  0
    2.8417    1.1708    0.0000 C   0  0  0  0  0  0  0  0  0  0  0  0
    2.1917    1.5458    0.0000 C   0  0  0  0  0  0  0  0  0  0  0  0
    5.3917    1.8375    0.0000 C   0  0  0  0  0  0  0  0  0  0  0  0
    1.5417    2.6708    0.0000 N   0  0  0  0  0  0  0  0  0  0  0  0
    5.6917    1.1583    0.0000 N   0  0  0  0  0  0  0  0  0  0  0  0
    4.5125    0.6250    0.0000 N   0  0  0  0  0  0  0  0  0  0  0  0
    5.8292    2.4458    0.0000 N   0  0  0  0  0  0  0  0  0  0  0  0
    7.0167    2.9833    0.0000 C   0  0  0  0  0  0  0  0  0  0  0  0
    5.2542    0.5458    0.0000 C   0  0  0  0  0  0  0  0  0  0  0  0
    7.7667    2.9833    0.0000 O   0  0  0  0  0  0  0  0  0  0  0  0
    6.7875    3.6875    0.0000 C   0  0  0  0  0  0  0  0  0  0  0  0
    8.0000    3.6875    0.0000 C   0  0  0  0  0  0  0  0  0  0  0  0
    7.3917    4.1250    0.0000 C   0  0  0  0  0  0  0  0  0  0  0  0
    0.2417    3.4208    0.0000 O   0  0  0  0  0  0  0  0  0  0  0  0
    6.5792    2.3708    0.0000 C   0  0  0  0  0  0  0  0  0  0  0  0
    2.6875    0.4333    0.0000 C   0  0  0  0  0  0  0  0  0  0  0  0
    1.6375    1.0458    0.0000 C   0  0  0  0  0  0  0  0  0  0  0  0
    0.8917    2.2958    0.0000 C   0  0  0  0  0  0  0  0  0  0  0  0
    1.5417    3.4208    0.0000 C   0  0  0  0  0  0  0  0  0  0  0  0
    1.9417    0.3583    0.0000 C   0  0  0  0  0  0  0  0  0  0  0  0
    0.2417    2.6708    0.0000 C   0  0  0  0  0  0  0  0  0  0  0  0
    0.8917    3.7958    0.0000 C   0  0  0  0  0  0  0  0  0  0  0  0
  2  1  2  0  0  0  0
  3  6  2  0  0  0  0
  3  5  1  0  0  0  0
  4  2  1  0  0  0  0
  4  7  2  0  0  0  0
  5  2  1  0  0  0  0
  6  1  1  0  0  0  0
  7  9  1  0  0  0  0
  8  1  1  0  0  0  0
  9  8  2  0  0  0  0
 10  3  1  0  0  0  0
 11  7  1  0  0  0  0
 12 16  1  0  0  0  0
 12 10  2  0  0  0  0
 13  6  1  0  0  0  0
 14 10  1  0  0  0  0
 15 22  1  0  0  0  0
 16 13  2  0  0  0  0
 17 15  1  0  0  0  0
 18 15  2  0  0  0  0
 19 17  1  0  0  0  0
 19 20  2  0  0  0  0
 20 18  1  0  0  0  0
 21 29  1  0  0  0  0
 21 28  1  0  0  0  0
 22 14  1  0  0  0  0
 23  8  1  0  0  0  0
 24  9  1  0  0  0  0
 24 27  1  0  0  0  0
 25 11  1  0  0  0  0
 26 11  1  0  0  0  0
 27 23  1  0  0  0  0
 28 25  1  0  0  0  0
 29 26  1  0  0  0  0
M  END
>  <ID>
7932741

>  <Supplier>
ChemBridge

>  <clogP>
4.042000000000000e+000

>  <RB>
4

>  <tPSA>
7.631000000000000e+001

>  <Hacc>
5

>  <Hdon>
1

>  <LogSw>
-6.732000000000000e+000

>  <Group>
3

$$$$
7932743
 OpenBabel03312015312D

 29 31  0  0  0  0  0  0  0  0999 V2000
    0.3042    2.4083    0.0000 S   0  0  0  0  0  0  0  0  0  0  0  0
   -0.4208    2.6000    0.0000 N   0  0  0  0  0  0  0  0  0  0  0  0
   -0.6083    3.3333    0.0000 C   0  0  0  0  0  0  0  0  0  0  0  0
   -1.3333    3.5208    0.0000 C   0  0  0  0  0  0  0  0  0  0  0  0
    0.6792    3.0583    0.0000 C   0  0  0  0  0  0  0  0  0  0  0  0
    0.0542    1.7083    0.0000 O   0  0  0  0  0  0  0  0  0  0  0  0
    0.9875    2.0958    0.0000 O   0  0  0  0  0  0  0  0  0  0  0  0
   -3.1708    5.3542    0.0000 C   0  0  0  0  0  0  0  0  0  0  0  0
   -2.4458    5.1542    0.0000 C   0  0  0  0  0  0  0  0  0  0  0  0
   -1.5333    4.2417    0.0000 N   0  0  0  0  0  0  0  0  0  0  0  0
   -2.2500    4.4292    0.0000 C   0  0  0  0  0  0  0  0  0  0  0  0
   -0.9458    2.0708    0.0000 C   0  0  0  0  0  0  0  0  0  0  0  0
   -3.7000    4.8167    0.0000 C   0  0  0  0  0  0  0  0  0  0  0  0
   -1.8625    2.9958    0.0000 O   0  0  0  0  0  0  0  0  0  0  0  0
    1.4292    3.0583    0.0000 C   0  0  0  0  0  0  0  0  0  0  0  0
    0.3042    3.7083    0.0000 C   0  0  0  0  0  0  0  0  0  0  0  0
   -3.5083    4.0917    0.0000 C   0  0  0  0  0  0  0  0  0  0  0  0
   -3.3625    6.0792    0.0000 Cl  0  0  0  0  0  0  0  0  0  0  0  0
   -2.7833    3.9083    0.0000 C   0  0  0  0  0  0  0  0  0  0  0  0
    1.4292    4.3417    0.0000 C   0  0  0  0  0  0  0  0  0  0  0  0
    1.8042    3.7083    0.0000 C   0  0  0  0  0  0  0  0  0  0  0  0
    0.6792    4.3417    0.0000 C   0  0  0  0  0  0  0  0  0  0  0  0
    1.8042    5.0000    0.0000 F   0  0  0  0  0  0  0  0  0  0  0  0
   -4.4250    5.0167    0.0000 C   0  0  0  0  0  0  0  0  0  0  0  0
   -1.6708    2.2708    0.0000 C   0  0  0  0  0  0  0  0  0  0  0  0
   -0.7500    1.3458    0.0000 C   0  0  0  0  0  0  0  0  0  0  0  0
   -2.2000    1.7333    0.0000 C   0  0  0  0  0  0  0  0  0  0  0  0
   -1.2833    0.8208    0.0000 C   0  0  0  0  0  0  0  0  0  0  0  0
   -2.0083    1.0125    0.0000 C   0  0  0  0  0  0  0  0  0  0  0  0
  2  1  1  0  0  0  0
  3  2  1  0  0  0  0
  4  3  1  0  0  0  0
  5  1  1  0  0  0  0
  6  1  2  0  0  0  0
  7  1  2  0  0  0  0
  8  9  2  0  0  0  0
  9 11  1  0  0  0  0
 10  4  1  0  0  0  0
 11 10  1  0  0  0  0
 12  2  1  0  0  0  0
 13 17  2  0  0  0  0
 13  8  1  0  0  0  0
 14  4  2  0  0  0  0
 15  5  1  0  0  0  0
 16  5  2  0  0  0  0
 17 19  1  0  0  0  0
 18  8  1  0  0  0  0
 19 11  2  0  0  0  0
 20 22  2  0  0  0  0
 21 15  2  0  0  0  0
 21 20  1  0  0  0  0
 22 16  1  0  0  0  0
 23 20  1  0  0  0  0
 24 13  1  0  0  0  0
 25 12  1  0  0  0  0
 26 12  2  0  0  0  0
 27 25  2  0  0  0  0
 27 29  1  0  0  0  0
 28 26  1  0  0  0  0
 29 28  2  0  0  0  0
M  END
>  <ID>
7932743

>  <Supplier>
ChemBridge

>  <clogP>
5.363999999999996e+000

>  <RB>
5

>  <tPSA>
6.647999999999998e+001

>  <Hacc>
3

>  <Hdon>
1

>  <LogSw>
-6.936000000000002e+000

>  <Group>
1

>  <Core>
084

$$$$
7932742
 OpenBabel03312015312D

 33 36  0  0  0  0  0  0  0  0999 V2000
    8.3500    2.4583    0.0000 N   0  0  0  0  0  0  0  0  0  0  0  0
    7.9042    3.0625    0.0000 N   0  0  0  0  0  0  0  0  0  0  0  0
    7.9042    1.8500    0.0000 N   0  0  0  0  0  0  0  0  0  0  0  0
    7.1917    2.8333    0.0000 C   0  0  0  0  0  0  0  0  0  0  0  0
    7.1917    2.0833    0.0000 C   0  0  0  0  0  0  0  0  0  0  0  0
    5.8917    2.8333    0.0000 C   0  0  0  0  0  0  0  0  0  0  0  0
    5.2417    5.4542    0.0000 N   0  3  0  0  0  0  0  0  0  0  0  0
    6.5417    3.2083    0.0000 C   0  0  0  0  0  0  0  0  0  0  0  0
    4.5917    4.3292    0.0000 C   0  0  0  0  0  0  0  0  0  0  0  0
    5.2417    3.9583    0.0000 C   0  0  0  0  0  0  0  0  0  0  0  0
    6.5417    1.7083    0.0000 C   0  0  0  0  0  0  0  0  0  0  0  0
    4.5917    5.0792    0.0000 C   0  0  0  0  0  0  0  0  0  0  0  0
    5.2417    3.2083    0.0000 N   0  0  0  0  0  0  0  0  0  0  0  0
    5.8917    2.0833    0.0000 C   0  0  0  0  0  0  0  0  0  0  0  0
    9.1000    2.4583    0.0000 C   0  0  0  0  0  0  0  0  0  0  0  0
    5.2417    6.2042    0.0000 O   0  5  0  0  0  0  0  0  0  0  0  0
    5.8917    5.0792    0.0000 O   0  0  0  0  0  0  0  0  0  0  0  0
    5.8917    4.3292    0.0000 O   0  0  0  0  0  0  0  0  0  0  0  0
   10.6000    2.4583    0.0000 C   0  0  0  0  0  0  0  0  0  0  0  0
   11.3500    2.4583    0.0000 N   0  0  0  0  0  0  0  0  0  0  0  0
    9.4750    3.1083    0.0000 C   0  0  0  0  0  0  0  0  0  0  0  0
    9.4750    1.8083    0.0000 C   0  0  0  0  0  0  0  0  0  0  0  0
   10.2250    1.8083    0.0000 C   0  0  0  0  0  0  0  0  0  0  0  0
   10.2250    3.1083    0.0000 C   0  0  0  0  0  0  0  0  0  0  0  0
    3.9417    3.9583    0.0000 C   0  0  0  0  0  0  0  0  0  0  0  0
    5.2417    1.7083    0.0000 C   0  0  0  0  0  0  0  0  0  0  0  0
    3.9417    5.4542    0.0000 C   0  0  0  0  0  0  0  0  0  0  0  0
   11.7250    3.1083    0.0000 C   0  0  0  0  0  0  0  0  0  0  0  0
   11.7250    1.8083    0.0000 C   0  0  0  0  0  0  0  0  0  0  0  0
    3.2917    4.3292    0.0000 C   0  0  0  0  0  0  0  0  0  0  0  0
   12.4750    1.8083    0.0000 C   0  0  0  0  0  0  0  0  0  0  0  0
   12.4750    3.1083    0.0000 C   0  0  0  0  0  0  0  0  0  0  0  0
    3.2917    5.0792    0.0000 C   0  0  0  0  0  0  0  0  0  0  0  0
  2  1  1  0  0  0  0
  3  1  1  0  0  0  0
  4  2  2  0  0  0  0
  5  3  2  0  0  0  0
  5  4  1  0  0  0  0
  6  8  2  0  0  0  0
  7 12  1  0  0  0  0
  8  4  1  0  0  0  0
  9 10  1  0  0  0  0
 10 13  1  0  0  0  0
 11  5  1  0  0  0  0
 12  9  1  0  0  0  0
 13  6  1  0  0  0  0
 14 11  2  0  0  0  0
 14  6  1  0  0  0  0
 15  1  1  0  0  0  0
 16  7  1  0  0  0  0
 17  7  2  0  0  0  0
 18 10  2  0  0  0  0
 19 23  1  0  0  0  0
 19 24  2  0  0  0  0
 20 19  1  0  0  0  0
 21 15  2  0  0  0  0
 22 15  1  0  0  0  0
 23 22  2  0  0  0  0
 24 21  1  0  0  0  0
 25  9  2  0  0  0  0
 26 14  1  0  0  0  0
 27 12  2  0  0  0  0
 27 33  1  0  0  0  0
 28 20  1  0  0  0  0
 29 20  1  0  0  0  0
 30 25  1  0  0  0  0
 31 29  1  0  0  0  0
 32 28  1  0  0  0  0
 33 30  2  0  0  0  0
M  CHG  2   7   1  16  -1
M  END
>  <ID>
7932742

>  <Supplier>
ChemBridge

>  <clogP>
4.816999999999998e+000

>  <RB>
3

>  <tPSA>
1.061900000000000e+002

>  <Hacc>
5

>  <Hdon>
1

>  <LogSw>
-6.944000000000000e+000

>  <Group>
1

>  <Core>
218

$$$$
7932745
 OpenBabel03312015312D

 25 27  0  0  0  0  0  0  0  0999 V2000
   -2.4833    1.7833    0.0000 N   0  3  0  0  0  0  0  0  0  0  0  0
   -0.0375    2.6708    0.0000 C   0  0  0  0  0  0  0  0  0  0  0  0
    2.1917    2.5458    0.0000 N   0  0  0  0  0  0  0  0  0  0  0  0
    0.7000    2.5458    0.0000 N   0  0  0  0  0  0  0  0  0  0  0  0
    1.0750    3.1958    0.0000 C   0  0  0  0  0  0  0  0  0  0  0  0
    1.8250    3.1958    0.0000 C   0  0  0  0  0  0  0  0  0  0  0  0
   -1.7458    1.6500    0.0000 C   0  0  0  0  0  0  0  0  0  0  0  0
   -0.5208    2.0958    0.0000 C   0  0  0  0  0  0  0  0  0  0  0  0
    2.9500    1.2458    0.0000 N   0  0  0  0  0  0  0  0  0  0  0  0
   -1.2583    2.2250    0.0000 C   0  0  0  0  0  0  0  0  0  0  0  0
   -2.9625    1.2083    0.0000 O   0  5  0  0  0  0  0  0  0  0  0  0
   -2.7333    2.4875    0.0000 O   0  0  0  0  0  0  0  0  0  0  0  0
   -0.2958    3.3750    0.0000 O   0  0  0  0  0  0  0  0  0  0  0  0
    2.9500    2.5458    0.0000 C   0  0  0  0  0  0  0  0  0  0  0  0
    1.8250    1.8958    0.0000 C   0  0  0  0  0  0  0  0  0  0  0  0
    2.1917    1.2458    0.0000 C   0  0  0  0  0  0  0  0  0  0  0  0
    3.3250    1.8958    0.0000 C   0  0  0  0  0  0  0  0  0  0  0  0
   -1.4833    0.9458    0.0000 C   0  0  0  0  0  0  0  0  0  0  0  0
    3.3250    0.5958    0.0000 C   0  0  0  0  0  0  0  0  0  0  0  0
    0.7000    3.8375    0.0000 C   0  0  0  0  0  0  0  0  0  0  0  0
   -0.2625    1.3958    0.0000 C   0  0  0  0  0  0  0  0  0  0  0  0
    2.1917    3.8375    0.0000 C   0  0  0  0  0  0  0  0  0  0  0  0
   -0.7458    0.8208    0.0000 C   0  0  0  0  0  0  0  0  0  0  0  0
    1.0750    4.4792    0.0000 C   0  0  0  0  0  0  0  0  0  0  0  0
    1.8250    4.4792    0.0000 C   0  0  0  0  0  0  0  0  0  0  0  0
  2  8  1  0  0  0  0
  3  6  1  0  0  0  0
  4  2  1  0  0  0  0
  5  4  1  0  0  0  0
  6  5  2  0  0  0  0
  7  1  1  0  0  0  0
  8 10  1  0  0  0  0
  9 16  1  0  0  0  0
  9 17  1  0  0  0  0
 10  7  2  0  0  0  0
 11  1  1  0  0  0  0
 12  1  2  0  0  0  0
 13  2  2  0  0  0  0
 14  3  1  0  0  0  0
 15  3  1  0  0  0  0
 16 15  1  0  0  0  0
 17 14  1  0  0  0  0
 18  7  1  0  0  0  0
 19  9  1  0  0  0  0
 20  5  1  0  0  0  0
 21 23  1  0  0  0  0
 21  8  2  0  0  0  0
 22  6  1  0  0  0  0
 22 25  2  0  0  0  0
 23 18  2  0  0  0  0
 24 20  2  0  0  0  0
 25 24  1  0  0  0  0
M  CHG  2   1   1  11  -1
M  END
>  <ID>
7932745

>  <Supplier>
ChemBridge

>  <clogP>
2.210000000000000e+000

>  <RB>
3

>  <tPSA>
7.872000000000000e+001

>  <Hacc>
4

>  <Hdon>
1

>  <LogSw>
-3.959000000000000e+000

>  <Group>
2

>  <Core>
162

$$$$
6952466
 OpenBabel03312015312D

 28 30  0  0  0  0  0  0  0  0999 V2000
    6.1000   -4.1292    0.0000 S   0  0  0  0  0  0  0  0  0  0  0  0
    6.0917   -4.9667    0.0000 N   0  0  0  0  0  0  0  0  0  0  0  0
    6.8042   -5.3792    0.0000 C   0  0  0  0  0  0  0  0  0  0  0  0
    7.5292   -4.9667    0.0000 C   0  0  0  0  0  0  0  0  0  0  0  0
    6.0917   -3.3042    0.0000 C   0  0  0  0  0  0  0  0  0  0  0  0
    6.9292   -4.1292    0.0000 O   0  0  0  0  0  0  0  0  0  0  0  0
    5.2667   -4.1292    0.0000 O   0  0  0  0  0  0  0  0  0  0  0  0
    5.3792   -5.3750    0.0000 C   0  0  0  0  0  0  0  0  0  0  0  0
    8.2417   -5.3875    0.0000 N   0  0  0  0  0  0  0  0  0  0  0  0
    7.5292   -4.1417    0.0000 O   0  0  0  0  0  0  0  0  0  0  0  0
    5.3792   -2.8917    0.0000 C   0  0  0  0  0  0  0  0  0  0  0  0
    6.8125   -2.8875    0.0000 C   0  0  0  0  0  0  0  0  0  0  0  0
    4.6625   -4.9542    0.0000 C   0  0  0  0  0  0  0  0  0  0  0  0
    6.0875   -1.6500    0.0000 C   0  0  0  0  0  0  0  0  0  0  0  0
    3.2292   -4.1167    0.0000 C   0  0  0  0  0  0  0  0  0  0  0  0
    5.3667   -2.0667    0.0000 C   0  0  0  0  0  0  0  0  0  0  0  0
    6.8042   -2.0542    0.0000 C   0  0  0  0  0  0  0  0  0  0  0  0
    2.5167   -3.7042    0.0000 Cl  0  0  0  0  0  0  0  0  0  0  0  0
    6.0792   -0.8250    0.0000 Cl  0  0  0  0  0  0  0  0  0  0  0  0
    8.9625   -4.9792    0.0000 C   0  0  0  0  0  0  0  0  0  0  0  0
    4.6667   -4.1292    0.0000 C   0  0  0  0  0  0  0  0  0  0  0  0
    3.9417   -5.3667    0.0000 C   0  0  0  0  0  0  0  0  0  0  0  0
    3.2292   -4.9542    0.0000 C   0  0  0  0  0  0  0  0  0  0  0  0
    3.9542   -3.7042    0.0000 C   0  0  0  0  0  0  0  0  0  0  0  0
    9.7167   -5.3042    0.0000 C   0  0  0  0  0  0  0  0  0  0  0  0
    9.0500   -4.1417    0.0000 C   0  0  0  0  0  0  0  0  0  0  0  0
    9.8542   -3.9750    0.0000 C   0  0  0  0  0  0  0  0  0  0  0  0
   10.2667   -4.6917    0.0000 C   0  0  0  0  0  0  0  0  0  0  0  0
  2  1  1  0  0  0  0
  3  2  1  0  0  0  0
  4  3  1  0  0  0  0
  5  1  1  0  0  0  0
  6  1  2  0  0  0  0
  7  1  2  0  0  0  0
  8  2  1  0  0  0  0
  9  4  1  0  0  0  0
 10  4  2  0  0  0  0
 11  5  1  0  0  0  0
 12  5  2  0  0  0  0
 13  8  1  0  0  0  0
 14 17  2  0  0  0  0
 15 23  1  0  0  0  0
 16 11  2  0  0  0  0
 16 14  1  0  0  0  0
 17 12  1  0  0  0  0
 18 15  1  0  0  0  0
 19 14  1  0  0  0  0
 20  9  1  0  0  0  0
 21 13  2  0  0  0  0
 22 13  1  0  0  0  0
 23 22  2  0  0  0  0
 24 21  1  0  0  0  0
 24 15  2  0  0  0  0
 25 20  1  0  0  0  0
 26 20  1  0  0  0  0
 27 26  1  0  0  0  0
 27 28  1  0  0  0  0
 28 25  1  0  0  0  0
M  END
>  <ID>
6952466

>  <Supplier>
ChemBridge

>  <clogP>
5.170000000000000e+000

>  <RB>
6

>  <tPSA>
6.647999999999998e+001

>  <Hacc>
4

>  <Hdon>
1

>  <LogSw>
-6.832000000000000e+000

>  <Group>
1

>  <Core>
084

$$$$
6952465
 OpenBabel03312015312D

 23 25  0  0  0  0  0  0  0  0999 V2000
    0.7417   -1.2417    0.0000 N   0  0  0  0  0  0  0  0  0  0  0  0
    0.4875   -2.0292    0.0000 C   0  0  0  0  0  0  0  0  0  0  0  0
    1.5667   -1.2417    0.0000 C   0  0  0  0  0  0  0  0  0  0  0  0
    1.8167   -2.0292    0.0000 C   0  0  0  0  0  0  0  0  0  0  0  0
    1.1542   -2.5125    0.0000 S   0  0  0  0  0  0  0  0  0  0  0  0
    0.2542   -0.5750    0.0000 C   0  0  0  0  0  0  0  0  0  0  0  0
    2.5375   -2.4417    0.0000 C   0  0  0  0  0  0  0  0  0  0  0  0
   -0.2333   -2.4375    0.0000 S   0  0  0  0  0  0  0  0  0  0  0  0
   -0.5708   -0.6667    0.0000 C   0  0  0  0  0  0  0  0  0  0  0  0
    4.6000   -1.7292    0.0000 C   0  0  0  0  0  0  0  0  0  0  0  0
    1.9792   -0.5250    0.0000 O   0  0  0  0  0  0  0  0  0  0  0  0
    3.3625   -2.4417    0.0000 C   0  0  0  0  0  0  0  0  0  0  0  0
    5.0042   -2.4417    0.0000 C   0  0  0  0  0  0  0  0  0  0  0  0
    3.7667   -1.7250    0.0000 C   0  0  0  0  0  0  0  0  0  0  0  0
    4.5917   -3.1542    0.0000 C   0  0  0  0  0  0  0  0  0  0  0  0
   -1.0500    0.0000    0.0000 C   0  0  0  0  0  0  0  0  0  0  0  0
    5.0167   -1.0167    0.0000 Br  0  0  0  0  0  0  0  0  0  0  0  0
    3.7667   -3.1542    0.0000 C   0  0  0  0  0  0  0  0  0  0  0  0
    5.8375   -2.4500    0.0000 F   0  0  0  0  0  0  0  0  0  0  0  0
    0.5917    0.1708    0.0000 C   0  0  0  0  0  0  0  0  0  0  0  0
   -1.8708   -0.0792    0.0000 Cl  0  0  0  0  0  0  0  0  0  0  0  0
    0.1042    0.8375    0.0000 C   0  0  0  0  0  0  0  0  0  0  0  0
   -0.7125    0.7583    0.0000 C   0  0  0  0  0  0  0  0  0  0  0  0
  2  1  1  0  0  0  0
  3  1  1  0  0  0  0
  4  3  1  0  0  0  0
  4  5  1  0  0  0  0
  5  2  1  0  0  0  0
  6  1  1  0  0  0  0
  7  4  2  0  0  0  0
  8  2  2  0  0  0  0
  9  6  1  0  0  0  0
 10 14  2  0  0  0  0
 11  3  2  0  0  0  0
 12  7  1  0  0  0  0
 13 15  2  0  0  0  0
 13 10  1  0  0  0  0
 14 12  1  0  0  0  0
 15 18  1  0  0  0  0
 16  9  2  0  0  0  0
 16 23  1  0  0  0  0
 17 10  1  0  0  0  0
 18 12  2  0  0  0  0
 19 13  1  0  0  0  0
 20  6  2  0  0  0  0
 21 16  1  0  0  0  0
 22 20  1  0  0  0  0
 23 22  2  0  0  0  0
M  END
>  <ID>
6952465

>  <Supplier>
ChemBridge

>  <clogP>
5.760000000000000e+000

>  <RB>
2

>  <tPSA>
2.031000000000000e+001

>  <Hacc>
1

>  <Hdon>
0

>  <LogSw>
-7.244000000000000e+000

>  <Group>
1

>  <Core>
001

$$$$
7932748
 OpenBabel03312015312D

 30 33  0  0  0  0  0  0  0  0999 V2000
    8.0875    0.8458    0.0000 C   0  0  0  0  0  0  0  0  0  0  0  0
    8.0875    1.5958    0.0000 C   0  0  0  0  0  0  0  0  0  0  0  0
    7.4375    1.9708    0.0000 C   0  0  0  0  0  0  0  0  0  0  0  0
    7.4375    0.4708    0.0000 O   0  0  0  0  0  0  0  0  0  0  0  0
    6.7875    0.8458    0.0000 C   0  0  0  0  0  0  0  0  0  0  0  0
    6.7875    1.5958    0.0000 C   0  0  0  0  0  0  0  0  0  0  0  0
    6.1417    0.4708    0.0000 C   0  0  0  0  0  0  0  0  0  0  0  0
    8.7375    1.9708    0.0000 C   0  0  0  0  0  0  0  0  0  0  0  0
    3.5417    0.4708    0.0000 C   0  0  0  0  0  0  0  0  0  0  0  0
    8.7375    0.4708    0.0000 O   0  0  0  0  0  0  0  0  0  0  0  0
    3.5417   -0.2792    0.0000 O   0  0  0  0  0  0  0  0  0  0  0  0
    6.1417    1.9708    0.0000 C   0  0  0  0  0  0  0  0  0  0  0  0
    2.8917    0.8458    0.0000 O   0  0  0  0  0  0  0  0  0  0  0  0
    5.4917    0.8458    0.0000 C   0  0  0  0  0  0  0  0  0  0  0  0
    9.3875    1.5958    0.0000 C   0  0  0  0  0  0  0  0  0  0  0  0
    8.7375    2.7208    0.0000 C   0  0  0  0  0  0  0  0  0  0  0  0
    4.8417    0.4708    0.0000 O   0  0  0  0  0  0  0  0  0  0  0  0
    4.1917    0.8458    0.0000 C   0  0  0  0  0  0  0  0  0  0  0  0
   10.0375    2.7208    0.0000 C   0  0  0  0  0  0  0  0  0  0  0  0
    5.4917    1.5958    0.0000 C   0  0  0  0  0  0  0  0  0  0  0  0
    2.2417    0.4708    0.0000 C   0  0  0  0  0  0  0  0  0  0  0  0
   10.0375    1.9708    0.0000 C   0  0  0  0  0  0  0  0  0  0  0  0
    9.3875    3.0958    0.0000 C   0  0  0  0  0  0  0  0  0  0  0  0
   10.6875    3.0958    0.0000 F   0  0  0  0  0  0  0  0  0  0  0  0
    1.5917    0.8458    0.0000 C   0  0  0  0  0  0  0  0  0  0  0  0
    1.5917    1.5958    0.0000 C   0  0  0  0  0  0  0  0  0  0  0  0
    0.9417    0.4708    0.0000 C   0  0  0  0  0  0  0  0  0  0  0  0
    0.2917    0.8458    0.0000 C   0  0  0  0  0  0  0  0  0  0  0  0
    0.9417    1.9708    0.0000 C   0  0  0  0  0  0  0  0  0  0  0  0
    0.2917    1.5958    0.0000 C   0  0  0  0  0  0  0  0  0  0  0  0
  2  1  1  0  0  0  0
  3  2  2  0  0  0  0
  4  1  1  0  0  0  0
  5  4  1  0  0  0  0
  6  5  1  0  0  0  0
  6  3  1  0  0  0  0
  7  5  2  0  0  0  0
  8  2  1  0  0  0  0
  9 18  1  0  0  0  0
 10  1  2  0  0  0  0
 11  9  2  0  0  0  0
 12  6  2  0  0  0  0
 12 20  1  0  0  0  0
 13  9  1  0  0  0  0
 14  7  1  0  0  0  0
 15  8  1  0  0  0  0
 16  8  2  0  0  0  0
 17 14  1  0  0  0  0
 18 17  1  0  0  0  0
 19 23  2  0  0  0  0
 20 14  2  0  0  0  0
 21 13  1  0  0  0  0
 22 15  2  0  0  0  0
 22 19  1  0  0  0  0
 23 16  1  0  0  0  0
 24 19  1  0  0  0  0
 25 21  1  0  0  0  0
 26 25  2  0  0  0  0
 27 25  1  0  0  0  0
 28 27  2  0  0  0  0
 29 26  1  0  0  0  0
 29 30  2  0  0  0  0
 30 28  1  0  0  0  0
M  END
>  <ID>
7932748

>  <Supplier>
ChemBridge

>  <clogP>
5.323000000000000e+000

>  <RB>
7

>  <tPSA>
6.574000000000000e+001

>  <Hacc>
5

>  <Hdon>
0

>  <LogSw>
-6.693999999999998e+000

>  <Group>
1

>  <Core>
079

$$$$
5711610
 OpenBabel03312015312D

 35 39  0  0  0  0  0  0  0  0999 V2000
    0.9000    1.0333    0.0000 C   0  0  0  0  0  0  0  0  0  0  0  0
   -0.1000    1.6208    0.0000 C   0  0  0  0  0  0  0  0  0  0  0  0
   -0.4458    1.0333    0.0000 C   0  0  0  0  0  0  0  0  0  0  0  0
    0.5792    1.6208    0.0000 C   0  0  3  0  0  0  0  0  0  0  0  0
    0.5792    0.4500    0.0000 C   0  0  0  0  0  0  0  0  0  0  0  0
   -0.1000    0.4500    0.0000 N   0  0  0  0  0  0  0  0  0  0  0  0
   -0.4458    2.1958    0.0000 C   0  0  0  0  0  0  0  0  0  0  0  0
    1.5792    1.0333    0.0000 C   0  0  0  0  0  0  0  0  0  0  0  0
    1.1542    2.6333    0.0000 C   0  0  0  0  0  0  0  0  0  0  0  0
   -1.1125    1.0333    0.0000 C   0  0  0  0  0  0  0  0  0  0  0  0
   -1.4500    1.6208    0.0000 C   0  0  3  0  0  0  0  0  0  0  0  0
   -1.1125    2.1958    0.0000 C   0  0  0  0  0  0  0  0  0  0  0  0
    1.9042    0.4125    0.0000 O   0  0  0  0  0  0  0  0  0  0  0  0
   -0.1208    2.7708    0.0000 O   0  0  0  0  0  0  0  0  0  0  0  0
    0.8375    3.2125    0.0000 C   0  0  0  0  0  0  0  0  0  0  0  0
    1.9042    1.6208    0.0000 O   0  0  0  0  0  0  0  0  0  0  0  0
   -2.1125    1.6208    0.0000 C   0  0  0  0  0  0  0  0  0  0  0  0
    2.5875    0.4000    0.0000 C   0  0  0  0  0  0  0  0  0  0  0  0
    0.9167   -0.1292    0.0000 C   0  0  0  0  0  0  0  0  0  0  0  0
    0.1500    3.2208    0.0000 F   0  0  0  0  0  0  0  0  0  0  0  0
    2.9292   -0.1792    0.0000 C   0  0  0  0  0  0  0  0  0  0  0  0
    1.8375    2.6333    0.0000 C   0  0  0  0  0  0  0  0  0  0  0  0
    1.1542    3.7833    0.0000 C   0  0  0  0  0  0  0  0  0  0  0  0
   -2.4500    2.1958    0.0000 C   0  0  0  0  0  0  0  0  0  0  0  0
   -2.4500    1.0333    0.0000 C   0  0  0  0  0  0  0  0  0  0  0  0
    2.6042   -0.7667    0.0000 C   0  0  0  0  0  0  0  0  0  0  0  0
    3.5875   -0.1792    0.0000 C   0  0  0  0  0  0  0  0  0  0  0  0
    2.1542    3.2125    0.0000 C   0  0  0  0  0  0  0  0  0  0  0  0
    1.8375    3.7833    0.0000 C   0  0  0  0  0  0  0  0  0  0  0  0
   -3.1208    2.1958    0.0000 C   0  0  0  0  0  0  0  0  0  0  0  0
   -3.1208    1.0333    0.0000 C   0  0  0  0  0  0  0  0  0  0  0  0
    3.9292   -0.7375    0.0000 C   0  0  0  0  0  0  0  0  0  0  0  0
    2.9500   -1.3292    0.0000 C   0  0  0  0  0  0  0  0  0  0  0  0
    3.6167   -1.3292    0.0000 C   0  0  0  0  0  0  0  0  0  0  0  0
   -3.4625    1.6208    0.0000 C   0  0  0  0  0  0  0  0  0  0  0  0
  2  4  1  0  0  0  0
  2  3  2  0  0  0  0
  3  6  1  0  0  0  0
  4  1  1  0  0  0  0
  5  1  2  0  0  0  0
  6  5  1  0  0  0  0
  7  2  1  0  0  0  0
  8  1  1  0  0  0  0
  9  4  1  0  0  0  0
 10  3  1  0  0  0  0
 11 10  1  0  0  0  0
 12  7  1  0  0  0  0
 12 11  1  0  0  0  0
 13  8  1  0  0  0  0
 14  7  2  0  0  0  0
 15  9  1  0  0  0  0
 16  8  2  0  0  0  0
 17 11  1  0  0  0  0
 18 13  1  0  0  0  0
 19  5  1  0  0  0  0
 20 15  1  0  0  0  0
 21 18  1  0  0  0  0
 22  9  2  0  0  0  0
 23 15  2  0  0  0  0
 23 29  1  0  0  0  0
 24 17  2  0  0  0  0
 25 17  1  0  0  0  0
 26 21  2  0  0  0  0
 27 21  1  0  0  0  0
 28 22  1  0  0  0  0
 29 28  2  0  0  0  0
 30 24  1  0  0  0  0
 31 25  2  0  0  0  0
 32 27  2  0  0  0  0
 33 26  1  0  0  0  0
 34 32  1  0  0  0  0
 34 33  2  0  0  0  0
 35 31  1  0  0  0  0
 35 30  2  0  0  0  0
M  END
>  <ID>
5711610

>  <Supplier>
ChemBridge

>  <clogP>
6.000000000000000e+000

>  <RB>
6

>  <tPSA>
5.540000000000000e+001

>  <Hacc>
3

>  <Hdon>
1

>  <LogSw>
-6.723999999999998e+000

>  <Group>
1

>  <Core>
085

$$$$
9047649
 OpenBabel03312015312D

 27 30  0  0  0  0  0  0  0  0999 V2000
    7.1167    2.5875    0.0000 N   0  0  0  0  0  0  0  0  0  0  0  0
    6.0125    2.0958    0.0000 C   0  0  0  0  0  0  0  0  0  0  0  0
    6.3875    2.7458    0.0000 C   0  0  0  0  0  0  0  0  0  0  0  0
    7.2000    1.8458    0.0000 C   0  0  0  0  0  0  0  0  0  0  0  0
    6.5167    1.5375    0.0000 C   0  0  0  0  0  0  0  0  0  0  0  0
    1.5125    2.0958    0.0000 N   0  0  0  0  0  0  0  0  0  0  0  0
    3.7625    2.0958    0.0000 C   0  0  0  0  0  0  0  0  0  0  0  0
    0.7625    2.0958    0.0000 C   0  0  0  0  0  0  0  0  0  0  0  0
    4.1375    2.7458    0.0000 N   0  0  0  0  0  0  0  0  0  0  0  0
    6.0125    3.3958    0.0000 C   0  0  0  0  0  0  0  0  0  0  0  0
    5.2625    2.0958    0.0000 C   0  0  0  0  0  0  0  0  0  0  0  0
    3.0125    2.0958    0.0000 C   0  0  0  0  0  0  0  0  0  0  0  0
    4.8875    2.7458    0.0000 C   0  0  0  0  0  0  0  0  0  0  0  0
    1.8875    1.4458    0.0000 C   0  0  0  0  0  0  0  0  0  0  0  0
    1.8875    2.7458    0.0000 C   0  0  0  0  0  0  0  0  0  0  0  0
    4.1375    1.4458    0.0000 O   0  0  0  0  0  0  0  0  0  0  0  0
    0.3875    2.7458    0.0000 O   0  0  0  0  0  0  0  0  0  0  0  0
    2.6375    1.4458    0.0000 C   0  0  0  0  0  0  0  0  0  0  0  0
    2.6375    2.7458    0.0000 C   0  0  0  0  0  0  0  0  0  0  0  0
    5.2625    3.3958    0.0000 C   0  0  0  0  0  0  0  0  0  0  0  0
    7.6792    3.0875    0.0000 C   0  0  0  0  0  0  0  0  0  0  0  0
    7.8042    1.4000    0.0000 C   0  0  0  0  0  0  0  0  0  0  0  0
    6.4375    0.7958    0.0000 C   0  0  0  0  0  0  0  0  0  0  0  0
    0.3875    1.4458    0.0000 C   0  0  0  0  0  0  0  0  0  0  0  0
    8.3917    2.8583    0.0000 C   0  0  0  0  0  0  0  0  0  0  0  0
    7.0417    0.3500    0.0000 C   0  0  0  0  0  0  0  0  0  0  0  0
    7.7292    0.6583    0.0000 C   0  0  0  0  0  0  0  0  0  0  0  0
  2  3  2  0  0  0  0
  2  5  1  0  0  0  0
  3  1  1  0  0  0  0
  4  1  1  0  0  0  0
  5  4  2  0  0  0  0
  6 15  1  0  0  0  0
  6 14  1  0  0  0  0
  7  9  1  0  0  0  0
  8  6  1  0  0  0  0
  9 13  1  0  0  0  0
 10  3  1  0  0  0  0
 11  2  1  0  0  0  0
 12  7  1  0  0  0  0
 13 20  1  0  0  0  0
 13 11  2  0  0  0  0
 14 18  1  0  0  0  0
 15 19  1  0  0  0  0
 16  7  2  0  0  0  0
 17  8  2  0  0  0  0
 18 12  1  0  0  0  0
 19 12  1  0  0  0  0
 20 10  2  0  0  0  0
 21  1  1  0  0  0  0
 22  4  1  0  0  0  0
 23  5  1  0  0  0  0
 23 26  2  0  0  0  0
 24  8  1  0  0  0  0
 25 21  1  0  0  0  0
 26 27  1  0  0  0  0
 27 22  2  0  0  0  0
M  END
>  <ID>
9047649

>  <Supplier>
ChemBridge

>  <clogP>
2.395000000000000e+000

>  <RB>
2

>  <tPSA>
5.434000000000000e+001

>  <Hacc>
2

>  <Hdon>
1

>  <LogSw>
-5.816999999999998e+000

>  <Group>
3

>  <Core>
051

$$$$
5262018
 OpenBabel03312015312D

 15 16  0  0  0  0  0  0  0  0999 V2000
   -1.9500    2.0458    0.0000 N   0  0  0  0  0  0  0  0  0  0  0  0
   -3.3000    2.8208    0.0000 S   0  0  0  0  0  0  0  0  0  0  0  0
   -1.2708    1.6500    0.0000 C   0  0  0  0  0  0  0  0  0  0  0  0
   -0.5958    2.0500    0.0000 C   0  0  0  0  0  0  0  0  0  0  0  0
    0.0792    1.6625    0.0000 C   0  0  0  0  0  0  0  0  0  0  0  0
    0.7500    2.0500    0.0000 C   0  0  0  0  0  0  0  0  0  0  0  0
    1.4167    1.6833    0.0000 O   0  0  0  0  0  0  0  0  0  0  0  0
   -1.9500    2.8208    0.0000 C   0  0  0  0  0  0  0  0  0  0  0  0
   -2.6208    1.6500    0.0000 C   0  0  0  0  0  0  0  0  0  0  0  0
   -2.6208    3.2083    0.0000 C   0  0  0  0  0  0  0  0  0  0  0  0
   -3.3000    2.0458    0.0000 C   0  0  0  0  0  0  0  0  0  0  0  0
    0.0792    3.2208    0.0000 C   0  0  0  0  0  0  0  0  0  0  0  0
   -0.5958    2.8333    0.0000 C   0  0  0  0  0  0  0  0  0  0  0  0
    0.7500    2.8500    0.0000 C   0  0  0  0  0  0  0  0  0  0  0  0
    1.4167    0.9000    0.0000 C   0  0  0  0  0  0  0  0  0  0  0  0
  2 11  1  0  0  0  0
  2 10  1  0  0  0  0
  3  1  1  0  0  0  0
  4  3  1  0  0  0  0
  5  4  1  0  0  0  0
  6  5  2  0  0  0  0
  6 14  1  0  0  0  0
  7  6  1  0  0  0  0
  8  1  1  0  0  0  0
  9  1  1  0  0  0  0
 10  8  1  0  0  0  0
 11  9  1  0  0  0  0
 12 13  1  0  0  0  0
 13  4  2  0  0  0  0
 14 12  2  0  0  0  0
 15  7  1  0  0  0  0
M  END
>  <ID>
5262018

>  <Supplier>
ChemBridge

>  <clogP>
2.540000000000000e+000

>  <RB>
2

>  <tPSA>
1.247000000000000e+001

>  <Hacc>
2

>  <Hdon>
0

>  <LogSw>
-1.991000000000000e+000

>  <Group>
3

$$$$
9036701
 OpenBabel03312015312D

 24 27  0  0  0  0  0  0  0  0999 V2000
    4.4792    1.0958    0.0000 S   0  0  0  0  0  0  0  0  0  0  0  0
    4.8542    1.7458    0.0000 N   0  0  0  0  0  0  0  0  0  0  0  0
    1.5792    1.8708    0.0000 N   0  0  0  0  0  0  0  0  0  0  0  0
    1.3167    2.5708    0.0000 N   0  0  0  0  0  0  0  0  0  0  0  0
    0.5667    2.5333    0.0000 N   0  0  0  0  0  0  0  0  0  0  0  0
    0.3750    1.8083    0.0000 N   0  0  0  0  0  0  0  0  0  0  0  0
    1.0042    1.3958    0.0000 C   0  0  0  0  0  0  0  0  0  0  0  0
    5.6042    1.7458    0.0000 C   0  0  3  0  0  0  0  0  0  0  0  0
    3.7542    1.2833    0.0000 C   0  0  0  0  0  0  0  0  0  0  0  0
    4.2250    0.3875    0.0000 O   0  0  0  0  0  0  0  0  0  0  0  0
    5.1625    0.7750    0.0000 O   0  0  0  0  0  0  0  0  0  0  0  0
    2.3042    1.6708    0.0000 C   0  0  0  0  0  0  0  0  0  0  0  0
    3.2292    0.7583    0.0000 C   0  0  0  0  0  0  0  0  0  0  0  0
    3.5625    2.0083    0.0000 C   0  0  0  0  0  0  0  0  0  0  0  0
    5.9792    2.3958    0.0000 C   0  0  3  0  0  0  0  0  0  0  0  0
    2.5042    0.9500    0.0000 C   0  0  0  0  0  0  0  0  0  0  0  0
    2.8417    2.2083    0.0000 C   0  0  0  0  0  0  0  0  0  0  0  0
    4.4792    2.3958    0.0000 C   0  0  0  0  0  0  0  0  0  0  0  0
    5.9792    1.0958    0.0000 C   0  0  0  0  0  0  0  0  0  0  0  0
    4.8542    3.0458    0.0000 C   0  0  0  0  0  0  0  0  0  0  0  0
    5.6042    3.0458    0.0000 C   0  0  0  0  0  0  0  0  0  0  0  0
    6.7292    2.3958    0.0000 C   0  0  0  0  0  0  0  0  0  0  0  0
    6.7292    1.0958    0.0000 C   0  0  0  0  0  0  0  0  0  0  0  0
    7.1042    1.7458    0.0000 C   0  0  0  0  0  0  0  0  0  0  0  0
  2  1  1  0  0  0  0
  3 12  1  0  0  0  0
  4  3  1  0  0  0  0
  5  4  2  0  0  0  0
  5  6  1  0  0  0  0
  6  7  2  0  0  0  0
  7  3  1  0  0  0  0
  8  2  1  0  0  0  0
  9  1  1  0  0  0  0
 10  1  2  0  0  0  0
 11  1  2  0  0  0  0
 12 17  1  0  0  0  0
 12 16  2  0  0  0  0
 13  9  2  0  0  0  0
 14  9  1  0  0  0  0
 15  8  1  0  0  0  0
 16 13  1  0  0  0  0
 17 14  2  0  0  0  0
 18  2  1  0  0  0  0
 19  8  1  0  0  0  0
 20 18  1  0  0  0  0
 21 20  1  0  0  0  0
 21 15  1  0  0  0  0
 22 15  1  0  0  0  0
 23 19  1  0  0  0  0
 24 23  1  0  0  0  0
 24 22  1  0  0  0  0
M  END
>  <ID>
9036701

>  <Supplier>
ChemBridge

>  <clogP>
3.055000000000000e+000

>  <RB>
2

>  <tPSA>
8.097999999999999e+001

>  <Hacc>
6

>  <Hdon>
0

>  <LogSw>
-4.342000000000000e+000

>  <Group>
2

$$$$
9047647
 OpenBabel03312015312D

 18 20  0  0  0  0  0  0  0  0999 V2000
    2.6417    2.4208    0.0000 S   0  0  0  0  0  0  0  0  0  0  0  0
    2.1167    1.8958    0.0000 C   0  0  0  0  0  0  0  0  0  0  0  0
    3.2917    2.0458    0.0000 N   0  0  0  0  0  0  0  0  0  0  0  0
    1.3750    2.0083    0.0000 S   0  0  0  0  0  0  0  0  0  0  0  0
    1.0292    1.3375    0.0000 C   0  0  0  0  0  0  0  0  0  0  0  0
    3.2917    1.2958    0.0000 C   0  0  0  0  0  0  0  0  0  0  0  0
    4.5917    1.2958    0.0000 N   0  0  3  0  0  0  0  0  0  0  0  0
    2.2292    1.1500    0.0000 C   0  0  0  0  0  0  0  0  0  0  0  0
    3.9417    2.4208    0.0000 C   0  0  0  0  0  0  0  0  0  0  0  0
    3.9417    0.9208    0.0000 C   0  0  3  0  0  0  0  0  0  0  0  0
    1.5625    0.8083    0.0000 C   0  0  0  0  0  0  0  0  0  0  0  0
    3.0750    3.0333    0.0000 O   0  0  0  0  0  0  0  0  0  0  0  0
    2.0667    2.9083    0.0000 O   0  0  0  0  0  0  0  0  0  0  0  0
    4.5917    2.0458    0.0000 C   0  0  0  0  0  0  0  0  0  0  0  0
    0.2917    1.2208    0.0000 Cl  0  0  0  0  0  0  0  0  0  0  0  0
    5.1500    0.7958    0.0000 C   0  0  0  0  0  0  0  0  0  0  0  0
    4.1000    0.1875    0.0000 C   0  0  0  0  0  0  0  0  0  0  0  0
    4.8417    0.1083    0.0000 C   0  0  0  0  0  0  0  0  0  0  0  0
  2  1  1  0  0  0  0
  3  1  1  0  0  0  0
  4  2  1  0  0  0  0
  5  4  1  0  0  0  0
  5 11  2  0  0  0  0
  6  3  1  0  0  0  0
  7 14  1  0  0  0  0
  8  2  2  0  0  0  0
  9  3  1  0  0  0  0
 10  6  1  0  0  0  0
 10  7  1  0  0  0  0
 11  8  1  0  0  0  0
 12  1  2  0  0  0  0
 13  1  2  0  0  0  0
 14  9  1  0  0  0  0
 15  5  1  0  0  0  0
 16  7  1  0  0  0  0
 17 10  1  0  0  0  0
 18 17  1  0  0  0  0
 18 16  1  0  0  0  0
M  END
>  <ID>
9047647

>  <Supplier>
ChemBridge

>  <clogP>
2.528000000000000e+000

>  <RB>
1

>  <tPSA>
4.061999999999998e+001

>  <Hacc>
4

>  <Hdon>
0

>  <LogSw>
-2.046000000000000e+000

>  <Group>
3

$$$$
9047646
 OpenBabel03312015312D

 21 23  0  0  0  0  0  0  0  0999 V2000
    5.3750    0.9083    0.0000 N   0  0  0  0  0  0  0  0  0  0  0  0
    5.8125    1.5125    0.0000 C   0  0  0  0  0  0  0  0  0  0  0  0
    5.3750    2.1208    0.0000 N   0  0  0  0  0  0  0  0  0  0  0  0
    4.6542    1.1375    0.0000 C   0  0  0  0  0  0  0  0  0  0  0  0
    4.6542    1.8958    0.0000 N   0  0  0  0  0  0  0  0  0  0  0  0
    4.0542    0.6958    0.0000 S   0  0  0  0  0  0  0  0  0  0  0  0
    6.5625    1.5125    0.0000 C   0  0  0  0  0  0  0  0  0  0  0  0
    1.4667    0.4250    0.0000 C   0  0  0  0  0  0  0  0  0  0  0  0
    2.7625    0.5625    0.0000 C   0  0  0  0  0  0  0  0  0  0  0  0
    2.0667    0.8708    0.0000 N   0  0  0  0  0  0  0  0  0  0  0  0
    0.7250    0.3458    0.0000 C   0  0  0  0  0  0  0  0  0  0  0  0
    1.1625   -0.2542    0.0000 C   0  0  0  0  0  0  0  0  0  0  0  0
    2.8417   -0.1792    0.0000 O   0  0  0  0  0  0  0  0  0  0  0  0
    3.3667    1.0083    0.0000 C   0  0  0  0  0  0  0  0  0  0  0  0
    6.9375    0.8625    0.0000 C   0  0  0  0  0  0  0  0  0  0  0  0
    6.9375    2.1625    0.0000 C   0  0  0  0  0  0  0  0  0  0  0  0
    5.6042    0.1958    0.0000 C   0  0  0  0  0  0  0  0  0  0  0  0
    7.6875    0.8625    0.0000 C   0  0  0  0  0  0  0  0  0  0  0  0
    7.6875    2.1625    0.0000 C   0  0  0  0  0  0  0  0  0  0  0  0
    8.0625    1.5125    0.0000 C   0  0  0  0  0  0  0  0  0  0  0  0
    8.8125    1.5125    0.0000 C   0  0  0  0  0  0  0  0  0  0  0  0
  2  1  1  0  0  0  0
  3  2  2  0  0  0  0
  3  5  1  0  0  0  0
  4  1  1  0  0  0  0
  5  4  2  0  0  0  0
  6  4  1  0  0  0  0
  7  2  1  0  0  0  0
  8 10  1  0  0  0  0
  9 14  1  0  0  0  0
 10  9  1  0  0  0  0
 11  8  1  0  0  0  0
 12  8  1  0  0  0  0
 12 11  1  0  0  0  0
 13  9  2  0  0  0  0
 14  6  1  0  0  0  0
 15  7  1  0  0  0  0
 16  7  2  0  0  0  0
 17  1  1  0  0  0  0
 18 15  2  0  0  0  0
 18 20  1  0  0  0  0
 19 16  1  0  0  0  0
 20 19  2  0  0  0  0
 21 20  1  0  0  0  0
M  END
>  <ID>
9047646

>  <Supplier>
ChemBridge

>  <clogP>
1.106000000000000e+000

>  <RB>
5

>  <tPSA>
5.981000000000002e+001

>  <Hacc>
3

>  <Hdon>
1

>  <LogSw>
-3.546000000000000e+000

>  <Group>
2

>  <Core>
009

$$$$
9047641
 OpenBabel03312015312D

 28 30  0  0  0  0  0  0  0  0999 V2000
    4.0042    4.2292    0.0000 C   0  0  0  0  0  0  0  0  0  0  0  0
    3.2542    4.2292    0.0000 N   0  0  0  0  0  0  0  0  0  0  0  0
    2.8792    3.5875    0.0000 C   0  0  0  0  0  0  0  0  0  0  0  0
    5.1292    4.8792    0.0000 N   0  0  0  0  0  0  0  0  0  0  0  0
    6.6292    4.8792    0.0000 N   0  0  0  0  0  0  0  0  0  0  0  0
    2.1292    3.5875    0.0000 C   0  0  0  0  0  0  0  0  0  0  0  0
    1.7542    2.9375    0.0000 C   0  0  0  0  0  0  0  0  0  0  0  0
    4.3792    4.8792    0.0000 C   0  0  0  0  0  0  0  0  0  0  0  0
    4.3792    3.5875    0.0000 O   0  0  0  0  0  0  0  0  0  0  0  0
    3.2542    2.9375    0.0000 C   0  0  0  0  0  0  0  0  0  0  0  0
    7.3792    4.8792    0.0000 C   0  0  0  0  0  0  0  0  0  0  0  0
    2.1292    2.2875    0.0000 C   0  0  0  0  0  0  0  0  0  0  0  0
    6.2542    5.5292    0.0000 C   0  0  0  0  0  0  0  0  0  0  0  0
    5.5042    5.5292    0.0000 C   0  0  0  0  0  0  0  0  0  0  0  0
    5.5042    4.2292    0.0000 C   0  0  0  0  0  0  0  0  0  0  0  0
    6.2542    4.2292    0.0000 C   0  0  0  0  0  0  0  0  0  0  0  0
    7.7542    4.2292    0.0000 C   0  0  0  0  0  0  0  0  0  0  0  0
    8.5042    2.9375    0.0000 C   0  0  0  0  0  0  0  0  0  0  0  0
    2.8792    2.2875    0.0000 C   0  0  0  0  0  0  0  0  0  0  0  0
    1.7542    4.2292    0.0000 O   0  0  0  0  0  0  0  0  0  0  0  0
    8.8792    2.2875    0.0000 F   0  0  0  0  0  0  0  0  0  0  0  0
    7.7542    2.9375    0.0000 C   0  0  0  0  0  0  0  0  0  0  0  0
    8.8792    3.5875    0.0000 C   0  0  0  0  0  0  0  0  0  0  0  0
    8.5042    4.2292    0.0000 C   0  0  0  0  0  0  0  0  0  0  0  0
    7.3792    3.5875    0.0000 C   0  0  0  0  0  0  0  0  0  0  0  0
    1.7542    1.6375    0.0000 O   0  0  0  0  0  0  0  0  0  0  0  0
    1.0042    4.2292    0.0000 C   0  0  0  0  0  0  0  0  0  0  0  0
    2.1292    0.9958    0.0000 C   0  0  0  0  0  0  0  0  0  0  0  0
  2  1  1  0  0  0  0
  3  2  1  0  0  0  0
  4  8  1  0  0  0  0
  5 16  1  0  0  0  0
  6  3  1  0  0  0  0
  7  6  2  0  0  0  0
  7 12  1  0  0  0  0
  8  1  1  0  0  0  0
  9  1  2  0  0  0  0
 10  3  2  0  0  0  0
 11  5  1  0  0  0  0
 12 19  2  0  0  0  0
 13 14  1  0  0  0  0
 13  5  1  0  0  0  0
 14  4  1  0  0  0  0
 15  4  1  0  0  0  0
 16 15  1  0  0  0  0
 17 11  1  0  0  0  0
 18 22  1  0  0  0  0
 19 10  1  0  0  0  0
 20  6  1  0  0  0  0
 21 18  1  0  0  0  0
 22 25  2  0  0  0  0
 23 24  1  0  0  0  0
 23 18  2  0  0  0  0
 24 17  2  0  0  0  0
 25 17  1  0  0  0  0
 26 12  1  0  0  0  0
 27 20  1  0  0  0  0
 28 26  1  0  0  0  0
M  END
>  <ID>
9047641

>  <Supplier>
ChemBridge

>  <clogP>
3.228000000000000e+000

>  <RB>
5

>  <tPSA>
5.404000000000000e+001

>  <Hacc>
5

>  <Hdon>
1

>  <LogSw>
-3.560000000000000e+000

>  <Group>
3

>  <Core>
164

$$$$
9047640
 OpenBabel03312015312D

 24 26  0  0  0  0  0  0  0  0999 V2000
    9.6792    3.3000    0.0000 N   0  0  0  0  0  0  0  0  0  0  0  0
    9.6042    2.5583    0.0000 C   0  0  0  0  0  0  0  0  0  0  0  0
   10.2917    2.2500    0.0000 N   0  0  0  0  0  0  0  0  0  0  0  0
   10.7917    2.8083    0.0000 N   0  0  0  0  0  0  0  0  0  0  0  0
   10.4167    3.4583    0.0000 C   0  0  0  0  0  0  0  0  0  0  0  0
    6.3542    2.1833    0.0000 C   0  0  0  0  0  0  0  0  0  0  0  0
    7.0042    2.5583    0.0000 N   0  0  0  0  0  0  0  0  0  0  0  0
    8.9542    2.1833    0.0000 S   0  0  0  0  0  0  0  0  0  0  0  0
    7.6542    2.1833    0.0000 C   0  0  0  0  0  0  0  0  0  0  0  0
    5.7042    2.5583    0.0000 C   0  0  0  0  0  0  0  0  0  0  0  0
    7.6542    1.4333    0.0000 O   0  0  0  0  0  0  0  0  0  0  0  0
    9.1250    3.8000    0.0000 C   0  0  0  0  0  0  0  0  0  0  0  0
    8.3042    2.5583    0.0000 C   0  0  0  0  0  0  0  0  0  0  0  0
    9.2792    4.5292    0.0000 C   0  0  0  0  0  0  0  0  0  0  0  0
    8.7250    5.0292    0.0000 C   0  0  0  0  0  0  0  0  0  0  0  0
    5.0542    2.1833    0.0000 C   0  0  0  0  0  0  0  0  0  0  0  0
   10.7167    4.1375    0.0000 C   0  0  0  0  0  0  0  0  0  0  0  0
    6.3542    1.4333    0.0000 C   0  0  0  0  0  0  0  0  0  0  0  0
    5.7042    1.0583    0.0000 C   0  0  0  0  0  0  0  0  0  0  0  0
    5.7042    3.3083    0.0000 C   0  0  0  0  0  0  0  0  0  0  0  0
    5.0542    1.4333    0.0000 C   0  0  0  0  0  0  0  0  0  0  0  0
    4.4042    2.5583    0.0000 C   0  0  0  0  0  0  0  0  0  0  0  0
    5.0542    3.6833    0.0000 C   0  0  0  0  0  0  0  0  0  0  0  0
    4.4042    3.3083    0.0000 C   0  0  0  0  0  0  0  0  0  0  0  0
  2  1  1  0  0  0  0
  3  2  2  0  0  0  0
  4  5  2  0  0  0  0
  4  3  1  0  0  0  0
  5  1  1  0  0  0  0
  6  7  1  0  0  0  0
  7  9  1  0  0  0  0
  8  2  1  0  0  0  0
  9 13  1  0  0  0  0
 10  6  1  0  0  0  0
 11  9  2  0  0  0  0
 12  1  1  0  0  0  0
 13  8  1  0  0  0  0
 14 12  1  0  0  0  0
 15 14  2  0  0  0  0
 16 10  2  0  0  0  0
 16 21  1  0  0  0  0
 17  5  1  0  0  0  0
 18  6  2  0  0  0  0
 19 18  1  0  0  0  0
 20 10  1  0  0  0  0
 21 19  2  0  0  0  0
 22 16  1  0  0  0  0
 23 20  2  0  0  0  0
 24 23  1  0  0  0  0
 24 22  2  0  0  0  0
M  END
>  <ID>
9047640

>  <Supplier>
ChemBridge

>  <clogP>
2.354000000000000e+000

>  <RB>
6

>  <tPSA>
5.981000000000002e+001

>  <Hacc>
3

>  <Hdon>
1

>  <LogSw>
-4.882000000000000e+000

>  <Group>
2

>  <Core>
009

$$$$
9047643
 OpenBabel03312015312D

 17 19  0  0  0  0  0  0  0  0999 V2000
    3.4750    1.9750    0.0000 N   0  0  0  0  0  0  0  0  0  0  0  0
    0.0375    1.7208    0.0000 C   0  0  0  0  0  0  0  0  0  0  0  0
    2.2875    1.7208    0.0000 C   0  0  0  0  0  0  0  0  0  0  0  0
    0.4125    1.0708    0.0000 N   0  0  0  0  0  0  0  0  0  0  0  0
    3.3917    1.2250    0.0000 N   0  0  0  0  0  0  0  0  0  0  0  0
    2.6625    1.0708    0.0000 C   0  0  0  0  0  0  0  0  0  0  0  0
    1.1625    1.0708    0.0000 C   0  0  0  0  0  0  0  0  0  0  0  0
    1.5375    1.7208    0.0000 C   0  0  0  0  0  0  0  0  0  0  0  0
    2.7875    2.2833    0.0000 C   0  0  0  0  0  0  0  0  0  0  0  0
    0.4125    2.3708    0.0000 O   0  0  0  0  0  0  0  0  0  0  0  0
   -0.7125    1.7208    0.0000 C   0  0  0  0  0  0  0  0  0  0  0  0
    2.2875    0.4208    0.0000 C   0  0  0  0  0  0  0  0  0  0  0  0
    1.5375    0.4208    0.0000 C   0  0  0  0  0  0  0  0  0  0  0  0
   -1.1583    2.3333    0.0000 C   0  0  0  0  0  0  0  0  0  0  0  0
   -1.1583    1.1125    0.0000 C   0  0  0  0  0  0  0  0  0  0  0  0
   -1.8708    2.0958    0.0000 C   0  0  0  0  0  0  0  0  0  0  0  0
   -1.8708    1.3458    0.0000 C   0  0  0  0  0  0  0  0  0  0  0  0
  2  4  1  0  0  0  0
  3  9  1  0  0  0  0
  4  7  1  0  0  0  0
  5  1  1  0  0  0  0
  6  5  1  0  0  0  0
  6  3  2  0  0  0  0
  7  8  2  0  0  0  0
  7 13  1  0  0  0  0
  8  3  1  0  0  0  0
  9  1  2  0  0  0  0
 10  2  2  0  0  0  0
 11  2  1  0  0  0  0
 12  6  1  0  0  0  0
 13 12  2  0  0  0  0
 14 11  1  0  0  0  0
 15 11  1  0  0  0  0
 16 14  1  0  0  0  0
 17 15  1  0  0  0  0
 17 16  1  0  0  0  0
M  END
>  <ID>
9047643

>  <Supplier>
ChemBridge

>  <clogP>
2.702000000000000e+000

>  <RB>
2

>  <tPSA>
5.778000000000000e+001

>  <Hacc>
2

>  <Hdon>
2

>  <LogSw>
-2.683000000000000e+000

>  <Group>
3

$$$$
9047642
 OpenBabel03312015312D

 28 30  0  0  0  0  0  0  0  0999 V2000
    6.6875    1.4083    0.0000 N   0  0  0  0  0  0  0  0  0  0  0  0
    4.0917    0.6583    0.0000 C   0  0  0  0  0  0  0  0  0  0  0  0
    3.4417    0.2833    0.0000 N   0  0  0  0  0  0  0  0  0  0  0  0
    2.7917    0.6583    0.0000 C   0  0  0  0  0  0  0  0  0  0  0  0
    5.3917    0.6583    0.0000 N   0  0  0  0  0  0  0  0  0  0  0  0
    2.7917    1.4083    0.0000 C   0  0  0  0  0  0  0  0  0  0  0  0
    2.1417    1.7833    0.0000 C   0  0  0  0  0  0  0  0  0  0  0  0
    7.3375    1.7833    0.0000 C   0  0  0  0  0  0  0  0  0  0  0  0
    4.7417    0.2833    0.0000 C   0  0  0  0  0  0  0  0  0  0  0  0
    6.6875    0.6583    0.0000 C   0  0  0  0  0  0  0  0  0  0  0  0
    6.0417    1.7833    0.0000 C   0  0  0  0  0  0  0  0  0  0  0  0
    4.0917    1.4083    0.0000 O   0  0  0  0  0  0  0  0  0  0  0  0
    2.1417    0.2833    0.0000 C   0  0  0  0  0  0  0  0  0  0  0  0
    7.9875    1.4083    0.0000 C   0  0  0  0  0  0  0  0  0  0  0  0
    7.3375    2.5333    0.0000 C   0  0  0  0  0  0  0  0  0  0  0  0
    6.0417    0.2833    0.0000 C   0  0  0  0  0  0  0  0  0  0  0  0
    5.3917    1.4083    0.0000 C   0  0  0  0  0  0  0  0  0  0  0  0
    1.4917    1.4083    0.0000 C   0  0  0  0  0  0  0  0  0  0  0  0
    8.6375    2.5333    0.0000 C   0  0  0  0  0  0  0  0  0  0  0  0
    1.4917    0.6583    0.0000 C   0  0  0  0  0  0  0  0  0  0  0  0
    3.4417    1.7833    0.0000 O   0  0  0  0  0  0  0  0  0  0  0  0
    7.9875    2.9083    0.0000 C   0  0  0  0  0  0  0  0  0  0  0  0
    8.6375    1.7833    0.0000 C   0  0  0  0  0  0  0  0  0  0  0  0
    0.8417    1.7833    0.0000 O   0  0  0  0  0  0  0  0  0  0  0  0
    9.2875    2.9083    0.0000 O   0  0  0  0  0  0  0  0  0  0  0  0
    3.4417    2.5333    0.0000 C   0  0  0  0  0  0  0  0  0  0  0  0
    0.1917    1.4083    0.0000 C   0  0  0  0  0  0  0  0  0  0  0  0
    9.9375    2.5333    0.0000 C   0  0  0  0  0  0  0  0  0  0  0  0
  2  9  1  0  0  0  0
  3  2  1  0  0  0  0
  4  3  1  0  0  0  0
  5 17  1  0  0  0  0
  6  4  1  0  0  0  0
  7  6  2  0  0  0  0
  7 18  1  0  0  0  0
  8  1  1  0  0  0  0
  9  5  1  0  0  0  0
 10  1  1  0  0  0  0
 11  1  1  0  0  0  0
 12  2  2  0  0  0  0
 13  4  2  0  0  0  0
 14  8  2  0  0  0  0
 15  8  1  0  0  0  0
 16 10  1  0  0  0  0
 16  5  1  0  0  0  0
 17 11  1  0  0  0  0
 18 20  2  0  0  0  0
 19 22  1  0  0  0  0
 19 23  2  0  0  0  0
 20 13  1  0  0  0  0
 21  6  1  0  0  0  0
 22 15  2  0  0  0  0
 23 14  1  0  0  0  0
 24 18  1  0  0  0  0
 25 19  1  0  0  0  0
 26 21  1  0  0  0  0
 27 24  1  0  0  0  0
 28 25  1  0  0  0  0
M  END
>  <ID>
9047642

>  <Supplier>
ChemBridge

>  <clogP>
2.069000000000000e+000

>  <RB>
4

>  <tPSA>
6.326999999999998e+001

>  <Hacc>
5

>  <Hdon>
1

>  <LogSw>
-3.805000000000000e+000

>  <Group>
2

>  <Core>
162

$$$$
7000022
 OpenBabel03312015312D

 24 27  0  0  0  0  0  0  0  0999 V2000
    0.3000   -1.0000    0.0000 C   0  0  0  0  0  0  0  0  0  0  0  0
    1.5500   -4.6375    0.0000 C   0  0  0  0  0  0  0  0  0  0  0  0
    6.8000    1.0958    0.0000 N   0  0  0  0  0  0  0  0  0  0  0  0
    5.4875   -5.4875    0.0000 N   0  0  0  0  0  0  0  0  0  0  0  0
    8.1167   -2.5292    0.0000 C   0  0  0  0  0  0  0  0  0  0  0  0
    2.9000    1.9208    0.0000 C   0  0  0  0  0  0  0  0  0  0  0  0
   -3.4833   -1.0000    0.0000 C   0  0  0  0  0  0  0  0  0  0  0  0
   -4.6458   -4.7542    0.0000 C   0  0  0  0  0  0  0  0  0  0  0  0
   -1.5208   -6.9542    0.0000 S   0  0  0  0  0  0  0  0  0  0  0  0
   -8.5042   -5.7042    0.0000 C   0  0  3  0  0  0  0  0  0  0  0  0
   -6.1292    1.7458    0.0000 C   0  0  0  0  0  0  0  0  0  0  0  0
  -10.0667    0.9125    0.0000 C   0  0  0  0  0  0  0  0  0  0  0  0
    9.4292    4.1167    0.0000 C   0  0  0  0  0  0  0  0  0  0  0  0
    1.6667    5.6667    0.0000 O   0  0  0  0  0  0  0  0  0  0  0  0
   11.9292   -3.2875    0.0000 S   0  0  0  0  0  0  0  0  0  0  0  0
  -11.1292   -2.7667    0.0000 C   0  0  0  0  0  0  0  0  0  0  0  0
   -9.6292   -9.4542    0.0000 C   0  0  0  0  0  0  0  0  0  0  0  0
  -13.8792    1.7458    0.0000 C   0  0  0  0  0  0  0  0  0  0  0  0
  -10.0667    4.8167    0.0000 C   0  0  0  0  0  0  0  0  0  0  0  0
    8.2042    7.7167    0.0000 C   0  0  0  0  0  0  0  0  0  0  0  0
   13.3667    3.2958    0.0000 C   0  0  0  0  0  0  0  0  0  0  0  0
   16.0000    6.2167    0.0000 C   0  0  0  0  0  0  0  0  0  0  0  0
   10.7667   10.7375    0.0000 C   0  0  0  0  0  0  0  0  0  0  0  0
   14.6167    9.9167    0.0000 C   0  0  0  0  0  0  0  0  0  0  0  0
  2  1  2  0  0  0  0
  3  6  1  0  0  0  0
  4  2  1  0  0  0  0
  4  5  2  0  0  0  0
  5  3  1  0  0  0  0
  6  1  1  0  0  0  0
  7  1  1  0  0  0  0
  8  7  2  0  0  0  0
  8  9  1  0  0  0  0
  9  2  1  0  0  0  0
 10  8  1  0  0  0  0
 10 16  1  0  0  0  0
 11  7  1  0  0  0  0
 12 11  1  0  0  0  0
 13  3  1  0  0  0  0
 14  6  2  0  0  0  0
 15  5  1  0  0  0  0
 16 12  1  0  0  0  0
 17 10  1  0  0  0  0
 18 12  1  0  0  0  0
 19 12  1  0  0  0  0
 20 13  2  0  0  0  0
 21 13  1  0  0  0  0
 22 21  2  0  0  0  0
 23 20  1  0  0  0  0
 23 24  2  0  0  0  0
 24 22  1  0  0  0  0
M  END
>  <ID>
7000022

>  <Supplier>
ChemBridge

>  <clogP>
5.670000000000000e+000

>  <RB>
1

>  <tPSA>
3.489000000000000e+001

>  <Hacc>
2

>  <Hdon>
0

>  <LogSw>
-6.642000000000000e+000

>  <Group>
1

>  <Core>
041

$$$$
7761806
 OpenBabel03312015312D

 21 22  0  0  0  0  0  0  0  0999 V2000
   -0.1333    1.5625    0.0000 N   0  0  0  0  0  0  0  0  0  0  0  0
   -0.8708    2.1208    0.0000 C   0  0  0  0  0  0  0  0  0  0  0  0
   -0.5708    3.0000    0.0000 N   0  0  0  0  0  0  0  0  0  0  0  0
    0.6292    2.1000    0.0000 C   0  0  0  0  0  0  0  0  0  0  0  0
    0.3667    2.9833    0.0000 N   0  0  0  0  0  0  0  0  0  0  0  0
   -1.7500    1.8833    0.0000 C   0  0  0  0  0  0  0  0  0  0  0  0
    1.5042    1.8000    0.0000 S   0  0  0  0  0  0  0  0  0  0  0  0
   -1.9958    1.0000    0.0000 C   0  0  0  0  0  0  0  0  0  0  0  0
   -2.8958    0.7458    0.0000 C   0  0  0  0  0  0  0  0  0  0  0  0
    3.0875    2.1625    0.0000 C   0  0  0  0  0  0  0  0  0  0  0  0
   -3.5333    1.4000    0.0000 C   0  0  0  0  0  0  0  0  0  0  0  0
   -2.4125    2.5458    0.0000 C   0  0  0  0  0  0  0  0  0  0  0  0
    3.2875    1.2625    0.0000 O   0  0  0  0  0  0  0  0  0  0  0  0
   -3.2958    2.3000    0.0000 C   0  0  0  0  0  0  0  0  0  0  0  0
    2.2042    2.4458    0.0000 C   0  0  0  0  0  0  0  0  0  0  0  0
   -0.1333    0.6208    0.0000 C   0  0  0  0  0  0  0  0  0  0  0  0
    3.7667    2.7833    0.0000 N   0  0  0  0  0  0  0  0  0  0  0  0
   -3.1333   -0.1542    0.0000 O   0  0  0  0  0  0  0  0  0  0  0  0
   -4.4333    1.1625    0.0000 O   0  0  0  0  0  0  0  0  0  0  0  0
   -4.0208   -0.4000    0.0000 C   0  0  0  0  0  0  0  0  0  0  0  0
   -4.6958    0.2625    0.0000 C   0  0  0  0  0  0  0  0  0  0  0  0
  2  1  1  0  0  0  0
  3  2  2  0  0  0  0
  3  5  1  0  0  0  0
  4  1  1  0  0  0  0
  5  4  2  0  0  0  0
  6  2  1  0  0  0  0
  7  4  1  0  0  0  0
  8  6  2  0  0  0  0
  9  8  1  0  0  0  0
 10 15  1  0  0  0  0
 11 14  1  0  0  0  0
 11  9  2  0  0  0  0
 12  6  1  0  0  0  0
 13 10  2  0  0  0  0
 14 12  2  0  0  0  0
 15  7  1  0  0  0  0
 16  1  1  0  0  0  0
 17 10  1  0  0  0  0
 18  9  1  0  0  0  0
 19 11  1  0  0  0  0
 20 18  1  0  0  0  0
 21 19  1  0  0  0  0
M  END
>  <ID>
7761806

>  <Supplier>
ChemBridge

>  <clogP>
-2.330000000000000e-001

>  <RB>
4

>  <tPSA>
9.226000000000001e+001

>  <Hacc>
6

>  <Hdon>
1

>  <LogSw>
-3.051000000000000e+000

>  <Group>
3

>  <Core>
009

$$$$
7849232
 OpenBabel03312015312D

 24 26  0  0  0  0  0  0  0  0999 V2000
    6.4542    1.2875    0.0000 C   0  0  0  0  0  0  0  0  0  0  0  0
    5.8042    0.9125    0.0000 N   0  0  0  0  0  0  0  0  0  0  0  0
    7.1042    0.9125    0.0000 N   0  0  0  0  0  0  0  0  0  0  0  0
    6.4542    2.0375    0.0000 S   0  0  0  0  0  0  0  0  0  0  0  0
    9.0500    1.2875    0.0000 C   0  0  0  0  0  0  0  0  0  0  0  0
    7.7542    1.2875    0.0000 C   0  0  0  0  0  0  0  0  0  0  0  0
    8.4000    0.9125    0.0000 C   0  0  0  0  0  0  0  0  0  0  0  0
    5.1542    1.2875    0.0000 C   0  0  0  0  0  0  0  0  0  0  0  0
    5.8042    0.1625    0.0000 C   0  0  0  0  0  0  0  0  0  0  0  0
    9.0500    2.0375    0.0000 C   0  0  0  0  0  0  0  0  0  0  0  0
    8.4000    2.4125    0.0000 C   0  0  0  0  0  0  0  0  0  0  0  0
    7.7542    2.0375    0.0000 C   0  0  0  0  0  0  0  0  0  0  0  0
    3.8542   -0.2125    0.0000 C   0  0  0  0  0  0  0  0  0  0  0  0
    5.1542   -0.2125    0.0000 C   0  0  0  0  0  0  0  0  0  0  0  0
    4.5042    0.9125    0.0000 C   0  0  0  0  0  0  0  0  0  0  0  0
    4.5042    0.1625    0.0000 C   0  0  0  0  0  0  0  0  0  0  0  0
    3.2042    0.1625    0.0000 C   0  0  0  0  0  0  0  0  0  0  0  0
    9.7000    0.9125    0.0000 C   0  0  0  0  0  0  0  0  0  0  0  0
    9.7000    2.4125    0.0000 C   0  0  0  0  0  0  0  0  0  0  0  0
    3.2042    0.9125    0.0000 C   0  0  0  0  0  0  0  0  0  0  0  0
    2.5542   -0.2125    0.0000 C   0  0  0  0  0  0  0  0  0  0  0  0
    1.9042    0.1625    0.0000 C   0  0  0  0  0  0  0  0  0  0  0  0
    2.5542    1.2875    0.0000 C   0  0  0  0  0  0  0  0  0  0  0  0
    1.9042    0.9125    0.0000 C   0  0  0  0  0  0  0  0  0  0  0  0
  2  1  1  0  0  0  0
  3  1  1  0  0  0  0
  4  1  2  0  0  0  0
  5  7  2  0  0  0  0
  5 10  1  0  0  0  0
  6  3  1  0  0  0  0
  7  6  1  0  0  0  0
  8  2  1  0  0  0  0
  9  2  1  0  0  0  0
 10 11  2  0  0  0  0
 11 12  1  0  0  0  0
 12  6  2  0  0  0  0
 13 16  1  0  0  0  0
 14  9  1  0  0  0  0
 15  8  1  0  0  0  0
 15 16  1  0  0  0  0
 16 14  1  0  0  0  0
 17 13  1  0  0  0  0
 18  5  1  0  0  0  0
 19 10  1  0  0  0  0
 20 17  1  0  0  0  0
 21 17  2  0  0  0  0
 22 21  1  0  0  0  0
 23 20  2  0  0  0  0
 23 24  1  0  0  0  0
 24 22  2  0  0  0  0
M  END
>  <ID>
7849232

>  <Supplier>
ChemBridge

>  <clogP>
5.875000000000000e+000

>  <RB>
3

>  <tPSA>
1.527000000000000e+001

>  <Hacc>
0

>  <Hdon>
1

>  <LogSw>
-5.678000000000000e+000

>  <Group>
1

$$$$
7054288
 OpenBabel03312015312D

 20 22  0  0  0  0  0  0  0  0999 V2000
    3.5042   -3.4375    0.0000 N   0  0  0  0  0  0  0  0  0  0  0  0
    2.8292   -2.2625    0.0000 C   0  0  0  0  0  0  0  0  0  0  0  0
    4.0542   -2.8250    0.0000 C   0  0  0  0  0  0  0  0  0  0  0  0
    0.7625   -1.4792    0.0000 N   0  0  0  0  0  0  0  0  0  0  0  0
    2.7500   -3.1042    0.0000 C   0  0  0  0  0  0  0  0  0  0  0  0
    1.4292   -1.9625    0.0000 C   0  0  0  0  0  0  0  0  0  0  0  0
    2.2167   -1.7042    0.0000 C   0  0  0  0  0  0  0  0  0  0  0  0
    3.6417   -2.1125    0.0000 N   0  0  0  0  0  0  0  0  0  0  0  0
    0.7667   -0.6542    0.0000 C   0  0  0  0  0  0  0  0  0  0  0  0
    0.0500   -0.2417    0.0000 C   0  0  0  0  0  0  0  0  0  0  0  0
    0.1000   -1.9625    0.0000 C   0  0  0  0  0  0  0  0  0  0  0  0
    1.1750   -2.7500    0.0000 C   0  0  0  0  0  0  0  0  0  0  0  0
    0.3500   -2.7500    0.0000 C   0  0  0  0  0  0  0  0  0  0  0  0
    4.8792   -2.9125    0.0000 O   0  0  0  0  0  0  0  0  0  0  0  0
    2.0417   -3.5167    0.0000 O   0  0  0  0  0  0  0  0  0  0  0  0
    0.0542    0.5833    0.0000 C   0  0  0  0  0  0  0  0  0  0  0  0
   -0.6708    0.9958    0.0000 Br  0  0  0  0  0  0  0  0  0  0  0  0
    1.4792   -0.2417    0.0000 C   0  0  0  0  0  0  0  0  0  0  0  0
    1.4792    0.5833    0.0000 C   0  0  0  0  0  0  0  0  0  0  0  0
    0.7667    0.9958    0.0000 C   0  0  0  0  0  0  0  0  0  0  0  0
  2  5  1  0  0  0  0
  2  8  1  0  0  0  0
  3  1  1  0  0  0  0
  4  6  1  0  0  0  0
  5  1  1  0  0  0  0
  6  7  1  0  0  0  0
  7  2  2  0  0  0  0
  8  3  1  0  0  0  0
  9  4  1  0  0  0  0
 10  9  1  0  0  0  0
 11  4  1  0  0  0  0
 11 13  2  0  0  0  0
 12  6  2  0  0  0  0
 13 12  1  0  0  0  0
 14  3  2  0  0  0  0
 15  5  2  0  0  0  0
 16 10  2  0  0  0  0
 17 16  1  0  0  0  0
 18  9  2  0  0  0  0
 19 18  1  0  0  0  0
 20 19  2  0  0  0  0
 20 16  1  0  0  0  0
M  END
>  <ID>
7054288

>  <Supplier>
ChemBridge

>  <clogP>
2.870000000000000e+000

>  <RB>
2

>  <tPSA>
6.313000000000000e+001

>  <Hacc>
3

>  <Hdon>
2

>  <LogSw>
-4.073000000000000e+000

>  <Group>
2

>  <Core>
003

$$$$
7849234
 OpenBabel03312015312D

 18 20  0  0  0  0  0  0  0  0999 V2000
    6.8792    3.1458    0.0000 N   0  0  0  0  0  0  0  0  0  0  0  0
    3.1292    2.6000    0.0000 C   0  0  0  0  0  0  0  0  0  0  0  0
    6.2792    3.5833    0.0000 C   0  0  0  0  0  0  0  0  0  0  0  0
    5.6667    3.1458    0.0000 C   0  0  0  0  0  0  0  0  0  0  0  0
    5.9042    2.4250    0.0000 C   0  0  0  0  0  0  0  0  0  0  0  0
    2.4167    2.8333    0.0000 N   0  0  0  0  0  0  0  0  0  0  0  0
    1.8542    2.3333    0.0000 C   0  0  0  0  0  0  0  0  0  0  0  0
    6.6542    2.4250    0.0000 C   0  0  0  0  0  0  0  0  0  0  0  0
    3.2875    1.8708    0.0000 S   0  0  0  0  0  0  0  0  0  0  0  0
    1.1250    2.1750    0.0000 C   0  0  0  0  0  0  0  0  0  0  0  0
    1.6292    1.6208    0.0000 C   0  0  0  0  0  0  0  0  0  0  0  0
    3.6875    3.1083    0.0000 N   0  0  0  0  0  0  0  0  0  0  0  0
    4.4000    2.8708    0.0000 C   0  0  0  0  0  0  0  0  0  0  0  0
    4.9542    3.3708    0.0000 C   0  0  0  0  0  0  0  0  0  0  0  0
    5.5292    1.7750    0.0000 C   0  0  0  0  0  0  0  0  0  0  0  0
    7.0292    1.7750    0.0000 C   0  0  0  0  0  0  0  0  0  0  0  0
    5.9042    1.1250    0.0000 C   0  0  0  0  0  0  0  0  0  0  0  0
    6.6542    1.1250    0.0000 C   0  0  0  0  0  0  0  0  0  0  0  0
  2 12  1  0  0  0  0
  3  1  1  0  0  0  0
  4  3  2  0  0  0  0
  5  8  2  0  0  0  0
  5  4  1  0  0  0  0
  6  2  1  0  0  0  0
  7  6  1  0  0  0  0
  8  1  1  0  0  0  0
  9  2  2  0  0  0  0
 10  7  1  0  0  0  0
 11  7  1  0  0  0  0
 11 10  1  0  0  0  0
 12 13  1  0  0  0  0
 13 14  1  0  0  0  0
 14  4  1  0  0  0  0
 15  5  1  0  0  0  0
 15 17  2  0  0  0  0
 16  8  1  0  0  0  0
 17 18  1  0  0  0  0
 18 16  2  0  0  0  0
M  END
>  <ID>
7849234

>  <Supplier>
ChemBridge

>  <clogP>
2.173000000000000e+000

>  <RB>
4

>  <tPSA>
3.985000000000000e+001

>  <Hacc>
0

>  <Hdon>
3

>  <LogSw>
-1.940000000000000e+000

>  <Group>
3

$$$$
7761809
 OpenBabel03312015312D

 29 33  0  0  0  0  0  0  0  0999 V2000
    0.7792   -9.4250    0.0000 S   0  0  0  0  0  0  0  0  0  0  0  0
    2.0292  -12.7042    0.0000 C   0  0  0  0  0  0  0  0  0  0  0  0
    1.2125  -12.7875    0.0000 N   0  0  0  0  0  0  0  0  0  0  0  0
    0.7792  -10.2500    0.0000 C   0  0  0  0  0  0  0  0  0  0  0  0
    1.4917  -11.4875    0.0000 C   0  0  0  0  0  0  0  0  0  0  0  0
    0.8792  -12.0417    0.0000 C   0  0  0  0  0  0  0  0  0  0  0  0
    1.4917  -10.6625    0.0000 C   0  0  0  0  0  0  0  0  0  0  0  0
    2.2042  -11.9000    0.0000 C   0  0  0  0  0  0  0  0  0  0  0  0
    0.7792   -8.6000    0.0000 N   0  0  0  0  0  0  0  0  0  0  0  0
    3.6375   -6.9417    0.0000 N   0  0  0  0  0  0  0  0  0  0  0  0
   -0.0458   -9.4250    0.0000 O   0  0  0  0  0  0  0  0  0  0  0  0
    1.6042   -9.4250    0.0000 O   0  0  0  0  0  0  0  0  0  0  0  0
    0.0667  -10.6625    0.0000 C   0  0  0  0  0  0  0  0  0  0  0  0
    2.9250   -7.3542    0.0000 C   0  0  0  0  0  0  0  0  0  0  0  0
    0.1000  -11.7917    0.0000 C   0  0  0  0  0  0  0  0  0  0  0  0
    2.5792  -13.3250    0.0000 O   0  0  0  0  0  0  0  0  0  0  0  0
    1.4917   -8.1875    0.0000 C   0  0  0  0  0  0  0  0  0  0  0  0
    2.9250   -8.1875    0.0000 C   0  0  0  0  0  0  0  0  0  0  0  0
    2.2042   -6.9417    0.0000 C   0  0  0  0  0  0  0  0  0  0  0  0
    2.2042  -10.2500    0.0000 C   0  0  0  0  0  0  0  0  0  0  0  0
    1.4917   -7.3542    0.0000 C   0  0  0  0  0  0  0  0  0  0  0  0
    2.2042   -8.6000    0.0000 C   0  0  0  0  0  0  0  0  0  0  0  0
    2.9250  -11.4875    0.0000 C   0  0  0  0  0  0  0  0  0  0  0  0
    4.3500   -7.3542    0.0000 C   0  0  0  0  0  0  0  0  0  0  0  0
    3.6292   -6.1167    0.0000 C   0  0  0  0  0  0  0  0  0  0  0  0
    2.9250  -10.6625    0.0000 C   0  0  0  0  0  0  0  0  0  0  0  0
    4.3500   -5.7125    0.0000 C   0  0  0  0  0  0  0  0  0  0  0  0
    5.0625   -6.9500    0.0000 C   0  0  0  0  0  0  0  0  0  0  0  0
    5.0667   -6.1250    0.0000 C   0  0  0  0  0  0  0  0  0  0  0  0
  2  8  1  0  0  0  0
  3  6  1  0  0  0  0
  3  2  1  0  0  0  0
  4  1  1  0  0  0  0
  5  7  1  0  0  0  0
  5  6  2  0  0  0  0
  6 15  1  0  0  0  0
  7  4  2  0  0  0  0
  8  5  1  0  0  0  0
  8 23  2  0  0  0  0
  9  1  1  0  0  0  0
 10 14  1  0  0  0  0
 11  1  2  0  0  0  0
 12  1  2  0  0  0  0
 13  4  1  0  0  0  0
 14 18  2  0  0  0  0
 15 13  2  0  0  0  0
 16  2  2  0  0  0  0
 17  9  1  0  0  0  0
 18 22  1  0  0  0  0
 19 21  2  0  0  0  0
 19 14  1  0  0  0  0
 20  7  1  0  0  0  0
 21 17  1  0  0  0  0
 22 17  2  0  0  0  0
 23 26  1  0  0  0  0
 24 10  1  0  0  0  0
 25 10  1  0  0  0  0
 26 20  2  0  0  0  0
 27 25  1  0  0  0  0
 28 24  1  0  0  0  0
 28 29  1  0  0  0  0
 29 27  1  0  0  0  0
M  END
>  <ID>
7761809

>  <Supplier>
ChemBridge

>  <clogP>
4.199000000000000e+000

>  <RB>
3

>  <tPSA>
7.851000000000001e+001

>  <Hacc>
3

>  <Hdon>
2

>  <LogSw>
-7.542000000000000e+000

>  <Group>
3

>  <Core>
516

$$$$
5377319
 OpenBabel03312015312D

 24 26  0  0  0  0  0  0  0  0999 V2000
   -1.3625    0.6958    0.0000 C   0  0  0  0  0  0  0  0  0  0  0  0
   -1.8333    1.4958    0.0000 N   0  0  0  0  0  0  0  0  0  0  0  0
   -2.2833    0.6958    0.0000 N   0  0  0  0  0  0  0  0  0  0  0  0
   -1.8125    0.4333    0.0000 C   0  0  0  0  0  0  0  0  0  0  0  0
   -1.3625    1.2333    0.0000 C   0  0  0  0  0  0  0  0  0  0  0  0
   -2.3000    1.2125    0.0000 C   0  0  0  0  0  0  0  0  0  0  0  0
    0.3667    0.8625    0.0000 C   0  0  0  0  0  0  0  0  0  0  0  0
   -0.9125    0.4208    0.0000 C   0  0  0  0  0  0  0  0  0  0  0  0
    0.0500    0.4500    0.0000 O   0  0  0  0  0  0  0  0  0  0  0  0
   -0.4625    0.6708    0.0000 C   0  0  0  0  0  0  0  0  0  0  0  0
    0.8875    0.8125    0.0000 C   0  0  0  0  0  0  0  0  0  0  0  0
    1.1792    1.2333    0.0000 C   0  0  0  0  0  0  0  0  0  0  0  0
    0.0792    1.3333    0.0000 C   0  0  0  0  0  0  0  0  0  0  0  0
    0.9500    1.7000    0.0000 C   0  0  0  0  0  0  0  0  0  0  0  0
   -0.4208    1.2000    0.0000 C   0  0  0  0  0  0  0  0  0  0  0  0
   -2.7708    1.4625    0.0000 S   0  0  0  0  0  0  0  0  0  0  0  0
   -1.8125   -0.1042    0.0000 O   0  0  0  0  0  0  0  0  0  0  0  0
   -0.9208    1.5125    0.0000 O   0  0  0  0  0  0  0  0  0  0  0  0
    0.4167    1.7458    0.0000 O   0  0  0  0  0  0  0  0  0  0  0  0
    1.2667    2.0958    0.0000 O   0  0  0  0  0  0  0  0  0  0  0  0
    1.1042    0.3458    0.0000 C   0  0  0  0  0  0  0  0  0  0  0  0
    1.7000    1.1833    0.0000 C   0  0  0  0  0  0  0  0  0  0  0  0
    1.6292    0.3000    0.0000 C   0  0  0  0  0  0  0  0  0  0  0  0
    1.9292    0.7333    0.0000 C   0  0  0  0  0  0  0  0  0  0  0  0
  2  5  1  0  0  0  0
  3  4  1  0  0  0  0
  3  6  1  0  0  0  0
  4  1  1  0  0  0  0
  5  1  1  0  0  0  0
  6  2  1  0  0  0  0
  7  9  1  0  0  0  0
  8  1  2  0  0  0  0
  9 10  1  0  0  0  0
 10  8  1  0  0  0  0
 11  7  1  0  0  0  0
 12 11  1  0  0  0  0
 13 15  1  0  0  0  0
 13  7  2  0  0  0  0
 14 12  1  0  0  0  0
 15 10  2  0  0  0  0
 16  6  2  0  0  0  0
 17  4  2  0  0  0  0
 18  5  2  0  0  0  0
 19 14  2  0  0  0  0
 20 14  1  0  0  0  0
 21 11  2  0  0  0  0
 22 12  2  0  0  0  0
 22 24  1  0  0  0  0
 23 21  1  0  0  0  0
 24 23  2  0  0  0  0
M  END
>  <ID>
5377319

>  <Supplier>
ChemBridge

>  <clogP>
2.230000000000000e+000

>  <RB>
3

>  <tPSA>
1.086400000000000e+002

>  <Hacc>
5

>  <Hdon>
3

>  <LogSw>
-3.601000000000000e+000

>  <Group>
3

>  <Core>
007

$$$$
9075326
 OpenBabel03312015312D

 27 29  0  0  0  0  0  0  0  0999 V2000
    2.3625    1.9333    0.0000 S   0  0  0  0  0  0  0  0  0  0  0  0
    3.0042    1.5583    0.0000 C   0  0  0  0  0  0  0  0  0  0  0  0
    3.6542    1.9333    0.0000 C   0  0  0  0  0  0  0  0  0  0  0  0
    4.3042    1.5583    0.0000 N   0  0  0  0  0  0  0  0  0  0  0  0
    5.6042    0.8083    0.0000 N   0  0  0  0  0  0  0  0  0  0  0  0
    1.8292    1.4083    0.0000 C   0  0  0  0  0  0  0  0  0  0  0  0
    2.7917    2.5458    0.0000 O   0  0  0  0  0  0  0  0  0  0  0  0
    1.7875    2.4208    0.0000 O   0  0  0  0  0  0  0  0  0  0  0  0
    6.2542    0.4333    0.0000 C   0  0  0  0  0  0  0  0  0  0  0  0
    4.9542    1.9333    0.0000 C   0  0  0  0  0  0  0  0  0  0  0  0
    4.3042    0.8083    0.0000 C   0  0  0  0  0  0  0  0  0  0  0  0
    4.9542    0.4333    0.0000 C   0  0  0  0  0  0  0  0  0  0  0  0
    5.6042    1.5583    0.0000 C   0  0  0  0  0  0  0  0  0  0  0  0
    3.6542    2.6833    0.0000 O   0  0  0  0  0  0  0  0  0  0  0  0
    1.1042    1.5958    0.0000 C   0  0  0  0  0  0  0  0  0  0  0  0
    2.0250    0.6833    0.0000 C   0  0  0  0  0  0  0  0  0  0  0  0
    6.2542   -0.3167    0.0000 C   0  0  0  0  0  0  0  0  0  0  0  0
    6.9042    0.8083    0.0000 C   0  0  0  0  0  0  0  0  0  0  0  0
    7.5542   -0.3167    0.0000 C   0  0  0  0  0  0  0  0  0  0  0  0
    7.5542    0.4333    0.0000 C   0  0  0  0  0  0  0  0  0  0  0  0
    6.9042   -0.6917    0.0000 C   0  0  0  0  0  0  0  0  0  0  0  0
    1.4917    0.1500    0.0000 C   0  0  0  0  0  0  0  0  0  0  0  0
    0.5750    1.0708    0.0000 C   0  0  0  0  0  0  0  0  0  0  0  0
    0.7667    0.3458    0.0000 C   0  0  0  0  0  0  0  0  0  0  0  0
    8.2042   -0.6917    0.0000 O   0  0  0  0  0  0  0  0  0  0  0  0
    0.2375   -0.1875    0.0000 C   0  0  0  0  0  0  0  0  0  0  0  0
    8.2042   -1.4417    0.0000 C   0  0  0  0  0  0  0  0  0  0  0  0
  2  1  1  0  0  0  0
  3  2  1  0  0  0  0
  4  3  1  0  0  0  0
  5 12  1  0  0  0  0
  5 13  1  0  0  0  0
  6  1  1  0  0  0  0
  7  1  2  0  0  0  0
  8  1  2  0  0  0  0
  9  5  1  0  0  0  0
 10  4  1  0  0  0  0
 11  4  1  0  0  0  0
 12 11  1  0  0  0  0
 13 10  1  0  0  0  0
 14  3  2  0  0  0  0
 15  6  2  0  0  0  0
 16  6  1  0  0  0  0
 17  9  2  0  0  0  0
 18  9  1  0  0  0  0
 19 20  1  0  0  0  0
 19 21  2  0  0  0  0
 20 18  2  0  0  0  0
 21 17  1  0  0  0  0
 22 16  2  0  0  0  0
 23 15  1  0  0  0  0
 24 22  1  0  0  0  0
 24 23  2  0  0  0  0
 25 19  1  0  0  0  0
 26 24  1  0  0  0  0
 27 25  1  0  0  0  0
M  END
>  <ID>
9075326

>  <Supplier>
ChemBridge

>  <clogP>
1.773000000000000e+000

>  <RB>
4

>  <tPSA>
6.691999999999999e+001

>  <Hacc>
4

>  <Hdon>
0

>  <LogSw>
-3.546000000000000e+000

>  <Group>
3

>  <Core>
158

$$$$
9075325
 OpenBabel03312015312D

 22 24  0  0  0  0  0  0  0  0999 V2000
    1.5417   -0.0042    0.0000 N   0  0  0  0  0  0  0  0  0  0  0  0
    2.0292    1.1083    0.0000 C   0  0  0  0  0  0  0  0  0  0  0  0
    2.2875   -0.0792    0.0000 C   0  0  0  0  0  0  0  0  0  0  0  0
    2.5917    0.6000    0.0000 C   0  0  0  0  0  0  0  0  0  0  0  0
    5.0625   -0.2042    0.0000 C   0  0  0  0  0  0  0  0  0  0  0  0
    1.3792    0.7333    0.0000 C   0  0  0  0  0  0  0  0  0  0  0  0
    5.7917   -0.0417    0.0000 C   0  0  0  0  0  0  0  0  0  0  0  0
    2.0292    1.8583    0.0000 C   0  0  0  0  0  0  0  0  0  0  0  0
    4.8292   -0.9167    0.0000 O   0  0  0  0  0  0  0  0  0  0  0  0
    4.5625    0.3583    0.0000 N   0  0  0  0  0  0  0  0  0  0  0  0
    0.7292    1.1083    0.0000 C   0  0  0  0  0  0  0  0  0  0  0  0
    6.2917   -0.6042    0.0000 C   0  0  0  0  0  0  0  0  0  0  0  0
    6.0292    0.6708    0.0000 C   0  0  0  0  0  0  0  0  0  0  0  0
    1.3792    2.2333    0.0000 C   0  0  0  0  0  0  0  0  0  0  0  0
    7.2625    0.2708    0.0000 C   0  0  0  0  0  0  0  0  0  0  0  0
    0.7292    1.8583    0.0000 C   0  0  0  0  0  0  0  0  0  0  0  0
    6.7625    0.8208    0.0000 C   0  0  0  0  0  0  0  0  0  0  0  0
    7.0292   -0.4417    0.0000 C   0  0  0  0  0  0  0  0  0  0  0  0
    7.9917    0.4208    0.0000 F   0  0  0  0  0  0  0  0  0  0  0  0
    3.8250    0.2000    0.0000 C   0  0  0  0  0  0  0  0  0  0  0  0
    3.3250    0.7583    0.0000 C   0  0  0  0  0  0  0  0  0  0  0  0
    1.3792    2.9833    0.0000 C   0  0  0  0  0  0  0  0  0  0  0  0
  2  6  1  0  0  0  0
  2  4  1  0  0  0  0
  3  1  1  0  0  0  0
  4  3  2  0  0  0  0
  5 10  1  0  0  0  0
  6  1  1  0  0  0  0
  7  5  1  0  0  0  0
  8  2  2  0  0  0  0
  9  5  2  0  0  0  0
 10 20  1  0  0  0  0
 11  6  2  0  0  0  0
 12  7  2  0  0  0  0
 13  7  1  0  0  0  0
 14 16  2  0  0  0  0
 14  8  1  0  0  0  0
 15 17  1  0  0  0  0
 15 18  2  0  0  0  0
 16 11  1  0  0  0  0
 17 13  2  0  0  0  0
 18 12  1  0  0  0  0
 19 15  1  0  0  0  0
 20 21  1  0  0  0  0
 21  4  1  0  0  0  0
 22 14  1  0  0  0  0
M  END
>  <ID>
9075325

>  <Supplier>
ChemBridge

>  <clogP>
3.792000000000000e+000

>  <RB>
4

>  <tPSA>
4.489000000000004e+001

>  <Hacc>
1

>  <Hdon>
2

>  <LogSw>
-4.600000000000000e+000

>  <Group>
2

$$$$
9146134
 OpenBabel03312015312D

 29 30  0  0  0  0  0  0  0  0999 V2000
    4.4875    2.9958    0.0000 C   0  0  0  0  0  0  0  0  0  0  0  0
    4.9875    2.4333    0.0000 N   0  0  0  0  0  0  0  0  0  0  0  0
    4.8625    3.6458    0.0000 N   0  0  0  0  0  0  0  0  0  0  0  0
    5.5917    3.4833    0.0000 N   0  0  0  0  0  0  0  0  0  0  0  0
    5.6750    2.7375    0.0000 C   0  0  0  0  0  0  0  0  0  0  0  0
    3.7417    2.9125    0.0000 S   0  0  0  0  0  0  0  0  0  0  0  0
    2.5542    3.4458    0.0000 C   0  0  0  0  0  0  0  0  0  0  0  0
    2.1125    4.0417    0.0000 N   0  0  0  0  0  0  0  0  0  0  0  0
    8.2667    2.7375    0.0000 N   0  0  0  0  0  0  0  0  0  0  0  0
    7.6167    2.3625    0.0000 C   0  0  0  0  0  0  0  0  0  0  0  0
    3.3000    3.5208    0.0000 C   0  0  3  0  0  0  0  0  0  0  0  0
    8.9167    2.3625    0.0000 C   0  0  0  0  0  0  0  0  0  0  0  0
    2.2500    2.7583    0.0000 O   0  0  0  0  0  0  0  0  0  0  0  0
    6.3250    2.3625    0.0000 C   0  0  0  0  0  0  0  0  0  0  0  0
    1.3667    3.9708    0.0000 C   0  0  0  0  0  0  0  0  0  0  0  0
    8.9167    1.6125    0.0000 C   0  0  0  0  0  0  0  0  0  0  0  0
    7.6167    1.6125    0.0000 O   0  0  0  0  0  0  0  0  0  0  0  0
    4.8292    1.7000    0.0000 C   0  0  0  0  0  0  0  0  0  0  0  0
    6.9667    2.7375    0.0000 C   0  0  0  0  0  0  0  0  0  0  0  0
    8.2667    1.2375    0.0000 Cl  0  0  0  0  0  0  0  0  0  0  0  0
    9.5667    2.7375    0.0000 C   0  0  0  0  0  0  0  0  0  0  0  0
    3.6042    4.2000    0.0000 C   0  0  0  0  0  0  0  0  0  0  0  0
    1.1000    4.6667    0.0000 C   0  0  0  0  0  0  0  0  0  0  0  0
    0.6417    3.7708    0.0000 C   0  0  0  0  0  0  0  0  0  0  0  0
    1.5042    3.2333    0.0000 C   0  0  0  0  0  0  0  0  0  0  0  0
    9.5667    1.2375    0.0000 C   0  0  0  0  0  0  0  0  0  0  0  0
    5.3917    1.2000    0.0000 C   0  0  0  0  0  0  0  0  0  0  0  0
   10.2167    2.3625    0.0000 C   0  0  0  0  0  0  0  0  0  0  0  0
   10.2167    1.6125    0.0000 C   0  0  0  0  0  0  0  0  0  0  0  0
  2  1  1  0  0  0  0
  3  1  2  0  0  0  0
  4  3  1  0  0  0  0
  5  2  1  0  0  0  0
  5  4  2  0  0  0  0
  6  1  1  0  0  0  0
  7 11  1  0  0  0  0
  8  7  1  0  0  0  0
  9 10  1  0  0  0  0
 10 19  1  0  0  0  0
 11  6  1  0  0  0  0
 12  9  1  0  0  0  0
 13  7  2  0  0  0  0
 14  5  1  0  0  0  0
 15  8  1  0  0  0  0
 16 12  1  0  0  0  0
 17 10  2  0  0  0  0
 18  2  1  0  0  0  0
 19 14  1  0  0  0  0
 20 16  1  0  0  0  0
 21 12  2  0  0  0  0
 22 11  1  0  0  0  0
 23 15  1  0  0  0  0
 24 15  1  0  0  0  0
 25 15  1  0  0  0  0
 26 16  2  0  0  0  0
 27 18  1  0  0  0  0
 28 21  1  0  0  0  0
 29 28  2  0  0  0  0
 29 26  1  0  0  0  0
M  END
>  <ID>
9146134

>  <Supplier>
ChemBridge

>  <clogP>
1.237000000000000e+000

>  <RB>
8

>  <tPSA>
8.891000000000000e+001

>  <Hacc>
4

>  <Hdon>
2

>  <LogSw>
-3.449000000000000e+000

>  <Group>
2

>  <Core>
009

$$$$
7575393
 OpenBabel03312015312D

 33 35  0  0  0  0  0  0  0  0999 V2000
    5.9417   -6.8792    0.0000 S   0  0  0  0  0  0  0  0  0  0  0  0
    5.9417   -6.0542    0.0000 N   0  0  0  0  0  0  0  0  0  0  0  0
    6.6542   -5.6417    0.0000 C   0  0  0  0  0  0  0  0  0  0  0  0
    7.4042   -6.0750    0.0000 C   0  0  0  0  0  0  0  0  0  0  0  0
    5.2292   -5.6417    0.0000 C   0  0  0  0  0  0  0  0  0  0  0  0
    5.2292   -7.2917    0.0000 C   0  0  0  0  0  0  0  0  0  0  0  0
    8.1417   -5.6417    0.0000 N   0  0  0  0  0  0  0  0  0  0  0  0
    8.8792   -6.0667    0.0000 C   0  0  0  0  0  0  0  0  0  0  0  0
    6.1542   -7.6792    0.0000 O   0  0  0  0  0  0  0  0  0  0  0  0
    6.6542   -7.2917    0.0000 O   0  0  0  0  0  0  0  0  0  0  0  0
    9.6125   -5.6292    0.0000 C   0  0  0  0  0  0  0  0  0  0  0  0
    5.2292   -4.8167    0.0000 C   0  0  0  0  0  0  0  0  0  0  0  0
   10.3542   -6.0625    0.0000 C   0  0  0  0  0  0  0  0  0  0  0  0
    7.4042   -6.9292    0.0000 O   0  0  0  0  0  0  0  0  0  0  0  0
    8.8792   -6.9167    0.0000 C   0  0  0  0  0  0  0  0  0  0  0  0
    5.2292   -8.1125    0.0000 C   0  0  0  0  0  0  0  0  0  0  0  0
    4.5167   -6.8750    0.0000 C   0  0  0  0  0  0  0  0  0  0  0  0
   10.3500   -6.9167    0.0000 C   0  0  0  0  0  0  0  0  0  0  0  0
    4.5167   -4.4042    0.0000 C   0  0  0  0  0  0  0  0  0  0  0  0
    3.8042   -8.1125    0.0000 C   0  0  0  0  0  0  0  0  0  0  0  0
    9.6125   -7.3417    0.0000 C   0  0  0  0  0  0  0  0  0  0  0  0
    9.6042   -4.7792    0.0000 O   0  0  0  0  0  0  0  0  0  0  0  0
    4.5167   -8.5250    0.0000 C   0  0  0  0  0  0  0  0  0  0  0  0
    3.8042   -7.2875    0.0000 C   0  0  0  0  0  0  0  0  0  0  0  0
    4.5167   -3.5792    0.0000 Cl  0  0  0  0  0  0  0  0  0  0  0  0
    4.5167   -6.0542    0.0000 C   0  0  0  0  0  0  0  0  0  0  0  0
   11.0917   -7.3417    0.0000 O   0  0  0  0  0  0  0  0  0  0  0  0
    3.0917   -8.5250    0.0000 O   0  0  0  0  0  0  0  0  0  0  0  0
    3.8042   -5.6417    0.0000 C   0  0  0  0  0  0  0  0  0  0  0  0
    3.8042   -4.8167    0.0000 C   0  0  0  0  0  0  0  0  0  0  0  0
   10.3417   -4.3500    0.0000 C   0  0  0  0  0  0  0  0  0  0  0  0
    3.0917   -9.3500    0.0000 C   0  0  0  0  0  0  0  0  0  0  0  0
   11.0917   -8.1917    0.0000 C   0  0  0  0  0  0  0  0  0  0  0  0
  2  1  1  0  0  0  0
  3  2  1  0  0  0  0
  4  3  1  0  0  0  0
  5  2  1  0  0  0  0
  6  1  1  0  0  0  0
  7  4  1  0  0  0  0
  8  7  1  0  0  0  0
  9  1  2  0  0  0  0
 10  1  2  0  0  0  0
 11  8  1  0  0  0  0
 12  5  2  0  0  0  0
 13 11  2  0  0  0  0
 13 18  1  0  0  0  0
 14  4  2  0  0  0  0
 15  8  2  0  0  0  0
 16  6  1  0  0  0  0
 17  6  2  0  0  0  0
 18 21  2  0  0  0  0
 19 12  1  0  0  0  0
 20 24  2  0  0  0  0
 20 23  1  0  0  0  0
 21 15  1  0  0  0  0
 22 11  1  0  0  0  0
 23 16  2  0  0  0  0
 24 17  1  0  0  0  0
 25 19  1  0  0  0  0
 26  5  1  0  0  0  0
 27 18  1  0  0  0  0
 28 20  1  0  0  0  0
 29 26  2  0  0  0  0
 30 29  1  0  0  0  0
 30 19  2  0  0  0  0
 31 22  1  0  0  0  0
 32 28  1  0  0  0  0
 33 27  1  0  0  0  0
M  END
>  <ID>
7575393

>  <Supplier>
ChemBridge

>  <clogP>
4.315000000000000e+000

>  <RB>
5

>  <tPSA>
9.417000000000000e+001

>  <Hacc>
6

>  <Hdon>
1

>  <LogSw>
-5.998000000000000e+000

>  <Group>
1

>  <Core>
084

$$$$
9155873
 OpenBabel03312015312D

 23 24  0  0  0  0  0  0  0  0999 V2000
    3.4000    4.0417    0.0000 S   0  0  0  0  0  0  0  0  0  0  0  0
    4.0500    3.6708    0.0000 C   0  0  0  0  0  0  0  0  0  0  0  0
    4.0500    2.9208    0.0000 C   0  0  0  0  0  0  0  0  0  0  0  0
    2.8667    3.5208    0.0000 N   0  0  0  0  0  0  0  0  0  0  0  0
    4.7000    4.0417    0.0000 C   0  0  0  0  0  0  0  0  0  0  0  0
    4.7000    2.5458    0.0000 C   0  0  0  0  0  0  0  0  0  0  0  0
    5.3500    3.6708    0.0000 C   0  0  0  0  0  0  0  0  0  0  0  0
    5.3500    2.9208    0.0000 C   0  0  0  0  0  0  0  0  0  0  0  0
    3.8292    4.6542    0.0000 O   0  0  0  0  0  0  0  0  0  0  0  0
    2.8292    4.5250    0.0000 O   0  0  0  0  0  0  0  0  0  0  0  0
    0.3625    2.8458    0.0000 N   0  0  0  0  0  0  0  0  0  0  0  0
    1.6167    3.1833    0.0000 C   0  0  0  0  0  0  0  0  0  0  0  0
    2.1417    3.7125    0.0000 C   0  0  0  0  0  0  0  0  0  0  0  0
    4.7000    1.7958    0.0000 O   0  0  0  0  0  0  0  0  0  0  0  0
    0.8917    3.3750    0.0000 C   0  0  0  0  0  0  0  0  0  0  0  0
    4.7000    4.7917    0.0000 C   0  0  0  0  0  0  0  0  0  0  0  0
    6.0000    2.5458    0.0000 C   0  0  0  0  0  0  0  0  0  0  0  0
    0.5542    2.1208    0.0000 C   0  0  0  0  0  0  0  0  0  0  0  0
    1.8125    2.4583    0.0000 C   0  0  0  0  0  0  0  0  0  0  0  0
    4.0500    1.4208    0.0000 C   0  0  0  0  0  0  0  0  0  0  0  0
    4.0500    0.6708    0.0000 C   0  0  0  0  0  0  0  0  0  0  0  0
    1.2792    1.9250    0.0000 C   0  0  0  0  0  0  0  0  0  0  0  0
    3.4000    0.2958    0.0000 C   0  0  0  0  0  0  0  0  0  0  0  0
  2  1  1  0  0  0  0
  3  2  1  0  0  0  0
  4  1  1  0  0  0  0
  5  2  2  0  0  0  0
  6  3  2  0  0  0  0
  7  5  1  0  0  0  0
  8  7  2  0  0  0  0
  8  6  1  0  0  0  0
  9  1  2  0  0  0  0
 10  1  2  0  0  0  0
 11 15  2  0  0  0  0
 12 13  1  0  0  0  0
 13  4  1  0  0  0  0
 14  6  1  0  0  0  0
 15 12  1  0  0  0  0
 16  5  1  0  0  0  0
 17  8  1  0  0  0  0
 18 22  2  0  0  0  0
 18 11  1  0  0  0  0
 19 12  2  0  0  0  0
 20 14  1  0  0  0  0
 21 20  1  0  0  0  0
 22 19  1  0  0  0  0
 23 21  1  0  0  0  0
M  END
>  <ID>
9155873

>  <Supplier>
ChemBridge

>  <clogP>
3.526000000000000e+000

>  <RB>
4

>  <tPSA>
6.829000000000001e+001

>  <Hacc>
5

>  <Hdon>
1

>  <LogSw>
-3.350000000000000e+000

>  <Group>
2

$$$$
6001901
 OpenBabel03312015312D

 25 28  0  0  0  0  0  0  0  0999 V2000
   -2.6500    1.0958    0.0000 N   0  0  0  0  0  0  0  0  0  0  0  0
   -2.5500    0.3333    0.0000 C   0  0  0  0  0  0  0  0  0  0  0  0
   -3.9583    0.9500    0.0000 N   0  0  0  0  0  0  0  0  0  0  0  0
   -3.3333    1.3958    0.0000 C   0  0  0  0  0  0  0  0  0  0  0  0
   -3.1708   -0.1292    0.0000 C   0  0  0  0  0  0  0  0  0  0  0  0
   -2.0333    1.5708    0.0000 N   0  0  0  0  0  0  0  0  0  0  0  0
   -0.7125    1.7333    0.0000 C   0  0  0  0  0  0  0  0  0  0  0  0
   -3.8708    0.1958    0.0000 C   0  0  0  0  0  0  0  0  0  0  0  0
   -1.3125    1.2708    0.0000 C   0  0  0  0  0  0  0  0  0  0  0  0
   -0.0125    1.4333    0.0000 C   0  0  0  0  0  0  0  0  0  0  0  0
   -1.8333    0.0333    0.0000 O   0  0  0  0  0  0  0  0  0  0  0  0
   -0.8125    2.4708    0.0000 C   0  0  0  0  0  0  0  0  0  0  0  0
    0.5875    1.9125    0.0000 C   0  0  0  0  0  0  0  0  0  0  0  0
   -0.2125    2.9333    0.0000 C   0  0  0  0  0  0  0  0  0  0  0  0
    0.4875    2.6708    0.0000 C   0  0  0  0  0  0  0  0  0  0  0  0
   -3.0708   -0.8875    0.0000 C   0  0  0  0  0  0  0  0  0  0  0  0
   -3.4125    2.1708    0.0000 C   0  0  0  0  0  0  0  0  0  0  0  0
   -1.5333    2.7958    0.0000 O   0  0  0  0  0  0  0  0  0  0  0  0
   -4.4708   -0.2875    0.0000 C   0  0  0  0  0  0  0  0  0  0  0  0
    0.0875    0.6708    0.0000 C   0  0  0  0  0  0  0  0  0  0  0  0
    1.3042    1.6333    0.0000 C   0  0  0  0  0  0  0  0  0  0  0  0
   -3.6958   -1.3500    0.0000 C   0  0  0  0  0  0  0  0  0  0  0  0
   -4.3958   -1.0500    0.0000 C   0  0  0  0  0  0  0  0  0  0  0  0
    0.8042    0.3958    0.0000 C   0  0  0  0  0  0  0  0  0  0  0  0
    1.4292    0.8708    0.0000 C   0  0  0  0  0  0  0  0  0  0  0  0
  2  1  1  0  0  0  0
  3  4  2  0  0  0  0
  4  1  1  0  0  0  0
  5  2  1  0  0  0  0
  5  8  2  0  0  0  0
  6  1  1  0  0  0  0
  7  9  1  0  0  0  0
  8  3  1  0  0  0  0
  9  6  2  0  0  0  0
 10  7  2  0  0  0  0
 11  2  2  0  0  0  0
 12  7  1  0  0  0  0
 13 10  1  0  0  0  0
 14 12  2  0  0  0  0
 15 14  1  0  0  0  0
 15 13  2  0  0  0  0
 16  5  1  0  0  0  0
 17  4  1  0  0  0  0
 18 12  1  0  0  0  0
 19  8  1  0  0  0  0
 20 10  1  0  0  0  0
 21 13  1  0  0  0  0
 21 25  2  0  0  0  0
 22 16  2  0  0  0  0
 22 23  1  0  0  0  0
 23 19  2  0  0  0  0
 24 20  2  0  0  0  0
 25 24  1  0  0  0  0
M  END
>  <ID>
6001901

>  <Supplier>
ChemBridge

>  <clogP>
4.440000000000000e+000

>  <RB>
2

>  <tPSA>
6.748000000000000e+001

>  <Hacc>
4

>  <Hdon>
1

>  <LogSw>
-4.813999999999998e+000

>  <Group>
2

>  <Core>
061

$$$$
6001900
 OpenBabel03312015312D

 31 33  0  0  0  0  0  0  0  0999 V2000
    5.5042   -4.5625    0.0000 S   0  0  0  0  0  0  0  0  0  0  0  0
    5.5125   -3.7375    0.0000 N   0  0  0  0  0  0  0  0  0  0  0  0
    6.2250   -3.3250    0.0000 C   0  0  0  0  0  0  0  0  0  0  0  0
    4.7917   -4.9667    0.0000 C   0  0  0  0  0  0  0  0  0  0  0  0
    6.9417   -3.7375    0.0000 C   0  0  0  0  0  0  0  0  0  0  0  0
    6.3292   -4.5542    0.0000 O   0  0  0  0  0  0  0  0  0  0  0  0
    6.0917   -5.1417    0.0000 O   0  0  0  0  0  0  0  0  0  0  0  0
    4.7917   -3.3167    0.0000 C   0  0  0  0  0  0  0  0  0  0  0  0
    7.6542   -3.3292    0.0000 N   0  0  0  0  0  0  0  0  0  0  0  0
    6.9375   -4.5625    0.0000 O   0  0  0  0  0  0  0  0  0  0  0  0
    4.8000   -5.8000    0.0000 C   0  0  0  0  0  0  0  0  0  0  0  0
    4.0792   -4.5542    0.0000 C   0  0  0  0  0  0  0  0  0  0  0  0
    4.7917   -2.4917    0.0000 C   0  0  0  0  0  0  0  0  0  0  0  0
    4.0792   -3.7292    0.0000 C   0  0  0  0  0  0  0  0  0  0  0  0
    3.3667   -5.7917    0.0000 C   0  0  0  0  0  0  0  0  0  0  0  0
    8.3625   -3.7417    0.0000 C   0  0  0  0  0  0  0  0  0  0  0  0
    3.3667   -2.4917    0.0000 C   0  0  0  0  0  0  0  0  0  0  0  0
    3.3667   -4.9667    0.0000 C   0  0  0  0  0  0  0  0  0  0  0  0
    4.0792   -6.2042    0.0000 C   0  0  0  0  0  0  0  0  0  0  0  0
    3.3667   -3.3167    0.0000 C   0  0  0  0  0  0  0  0  0  0  0  0
    4.0792   -2.0792    0.0000 C   0  0  0  0  0  0  0  0  0  0  0  0
    2.6500   -6.2000    0.0000 Cl  0  0  0  0  0  0  0  0  0  0  0  0
    9.0792   -3.3292    0.0000 C   0  0  0  0  0  0  0  0  0  0  0  0
    2.6542   -2.0875    0.0000 O   0  0  0  0  0  0  0  0  0  0  0  0
    2.6542   -1.2625    0.0000 C   0  0  0  0  0  0  0  0  0  0  0  0
    9.7875   -3.7500    0.0000 C   0  0  0  0  0  0  0  0  0  0  0  0
    9.0792   -2.5125    0.0000 C   0  0  0  0  0  0  0  0  0  0  0  0
    3.3667   -0.8417    0.0000 C   0  0  0  0  0  0  0  0  0  0  0  0
   10.5000   -3.3417    0.0000 C   0  0  0  0  0  0  0  0  0  0  0  0
    9.7917   -2.1042    0.0000 C   0  0  0  0  0  0  0  0  0  0  0  0
   10.5042   -2.5167    0.0000 C   0  0  0  0  0  0  0  0  0  0  0  0
  2  1  1  0  0  0  0
  3  2  1  0  0  0  0
  4  1  1  0  0  0  0
  5  3  1  0  0  0  0
  6  1  2  0  0  0  0
  7  1  2  0  0  0  0
  8  2  1  0  0  0  0
  9  5  1  0  0  0  0
 10  5  2  0  0  0  0
 11  4  1  0  0  0  0
 12  4  2  0  0  0  0
 13  8  1  0  0  0  0
 14  8  2  0  0  0  0
 15 18  2  0  0  0  0
 15 19  1  0  0  0  0
 16  9  1  0  0  0  0
 17 20  2  0  0  0  0
 17 21  1  0  0  0  0
 18 12  1  0  0  0  0
 19 11  2  0  0  0  0
 20 14  1  0  0  0  0
 21 13  2  0  0  0  0
 22 15  1  0  0  0  0
 23 16  1  0  0  0  0
 24 17  1  0  0  0  0
 25 24  1  0  0  0  0
 26 23  2  0  0  0  0
 27 23  1  0  0  0  0
 28 25  1  0  0  0  0
 29 26  1  0  0  0  0
 29 31  2  0  0  0  0
 30 27  2  0  0  0  0
 31 30  1  0  0  0  0
M  END
>  <ID>
6001900

>  <Supplier>
ChemBridge

>  <clogP>
5.040000000000000e+000

>  <RB>
6

>  <tPSA>
7.570999999999999e+001

>  <Hacc>
4

>  <Hdon>
1

>  <LogSw>
-6.849000000000000e+000

>  <Group>
2

>  <Core>
084

$$$$
5377312
 OpenBabel03312015312D

 20 23  0  0  0  0  0  0  0  0999 V2000
   -1.2708   -0.0292    0.0000 N   0  0  0  0  0  0  0  0  0  0  0  0
   -2.3333    0.2708    0.0000 C   0  0  3  0  0  0  0  0  0  0  0  0
   -2.3333   -0.3875    0.0000 C   0  0  3  0  0  0  0  0  0  0  0  0
   -1.6500   -0.6000    0.0000 C   0  0  0  0  0  0  0  0  0  0  0  0
   -1.7000    0.5125    0.0000 C   0  0  0  0  0  0  0  0  0  0  0  0
   -3.0833    0.0708    0.0000 C   0  0  3  0  0  0  0  0  0  0  0  0
   -3.0958   -0.2500    0.0000 C   0  0  3  0  0  0  0  0  0  0  0  0
   -0.5708   -0.0292    0.0000 C   0  0  0  0  0  0  0  0  0  0  0  0
   -3.5125    0.5625    0.0000 O   0  0  0  0  0  0  0  0  0  0  0  0
   -0.2333    0.5708    0.0000 C   0  0  0  0  0  0  0  0  0  0  0  0
   -3.5958   -0.5542    0.0000 C   0  0  0  0  0  0  0  0  0  0  0  0
   -3.6125   -0.9375    0.0000 C   0  0  0  0  0  0  0  0  0  0  0  0
    0.4792    0.5833    0.0000 C   0  0  0  0  0  0  0  0  0  0  0  0
   -1.5500    1.1833    0.0000 O   0  0  0  0  0  0  0  0  0  0  0  0
   -1.4000   -1.2292    0.0000 O   0  0  0  0  0  0  0  0  0  0  0  0
   -0.2208   -0.6375    0.0000 C   0  0  0  0  0  0  0  0  0  0  0  0
    0.8375   -0.0292    0.0000 C   0  0  0  0  0  0  0  0  0  0  0  0
    0.4875   -0.6292    0.0000 C   0  0  0  0  0  0  0  0  0  0  0  0
    0.8167    1.1958    0.0000 Br  0  0  0  0  0  0  0  0  0  0  0  0
    1.5375   -0.0292    0.0000 C   0  0  0  0  0  0  0  0  0  0  0  0
  2  5  1  0  0  0  0
  3  4  1  0  0  0  0
  3  2  1  0  0  0  0
  4  1  1  0  0  0  0
  5  1  1  0  0  0  0
  6  2  1  0  0  0  0
  7  3  1  0  0  0  0
  7  9  1  0  0  0  0
  8  1  1  0  0  0  0
  9  6  1  0  0  0  0
 10  8  2  0  0  0  0
 11  6  1  0  0  0  0
 12  7  1  0  0  0  0
 12 11  2  0  0  0  0
 13 10  1  0  0  0  0
 13 17  2  0  0  0  0
 14  5  2  0  0  0  0
 15  4  2  0  0  0  0
 16  8  1  0  0  0  0
 17 18  1  0  0  0  0
 18 16  2  0  0  0  0
 19 13  1  0  0  0  0
 20 17  1  0  0  0  0
M  END
>  <ID>
5377312

>  <Supplier>
ChemBridge

>  <clogP>
1.650000000000000e+000

>  <RB>
1

>  <tPSA>
4.661000000000000e+001

>  <Hacc>
3

>  <Hdon>
0

>  <LogSw>
-3.046000000000000e+000

>  <Group>
3

>  <Core>
311

$$$$
5377315
 OpenBabel03312015312D

 22 24  0  0  0  0  0  0  0  0999 V2000
    3.9500   -0.8167    0.0000 S   0  0  0  0  0  0  0  0  0  0  0  0
    3.4167   -0.5375    0.0000 C   0  0  0  0  0  0  0  0  0  0  0  0
    3.8542   -1.5667    0.0000 N   0  0  0  0  0  0  0  0  0  0  0  0
    3.0375   -0.8167    0.0000 C   0  0  0  0  0  0  0  0  0  0  0  0
    2.6042   -0.6292    0.0000 C   0  0  0  0  0  0  0  0  0  0  0  0
    4.0500    0.0500    0.0000 O   0  0  0  0  0  0  0  0  0  0  0  0
    4.8167   -0.5667    0.0000 O   0  0  0  0  0  0  0  0  0  0  0  0
    5.2500   -2.2042    0.0000 C   0  0  0  0  0  0  0  0  0  0  0  0
    4.8875   -1.9042    0.0000 C   0  0  0  0  0  0  0  0  0  0  0  0
    2.5542   -0.1667    0.0000 C   0  0  0  0  0  0  0  0  0  0  0  0
    4.4500   -2.0667    0.0000 C   0  0  0  0  0  0  0  0  0  0  0  0
    5.1542   -2.6667    0.0000 C   0  0  0  0  0  0  0  0  0  0  0  0
    2.2292   -0.9042    0.0000 O   0  0  0  0  0  0  0  0  0  0  0  0
    2.1292    0.0125    0.0000 O   0  0  0  0  0  0  0  0  0  0  0  0
    3.3667   -0.0667    0.0000 C   0  0  0  0  0  0  0  0  0  0  0  0
    2.9375    0.1000    0.0000 C   0  0  0  0  0  0  0  0  0  0  0  0
    4.7167   -2.8292    0.0000 C   0  0  0  0  0  0  0  0  0  0  0  0
    5.7667   -2.0542    0.0000 Cl  0  0  0  0  0  0  0  0  0  0  0  0
    4.3667   -2.5292    0.0000 C   0  0  0  0  0  0  0  0  0  0  0  0
    5.6667   -3.0667    0.0000 Cl  0  0  0  0  0  0  0  0  0  0  0  0
    1.8000   -0.7292    0.0000 C   0  0  0  0  0  0  0  0  0  0  0  0
    1.7500   -0.2542    0.0000 C   0  0  0  0  0  0  0  0  0  0  0  0
  2  1  1  0  0  0  0
  3  1  1  0  0  0  0
  4  2  2  0  0  0  0
  5  4  1  0  0  0  0
  6  1  2  0  0  0  0
  7  1  2  0  0  0  0
  8  9  1  0  0  0  0
  9 11  2  0  0  0  0
 10 16  1  0  0  0  0
 10  5  2  0  0  0  0
 11  3  1  0  0  0  0
 12 17  1  0  0  0  0
 12  8  2  0  0  0  0
 13  5  1  0  0  0  0
 14 10  1  0  0  0  0
 15  2  1  0  0  0  0
 16 15  2  0  0  0  0
 17 19  2  0  0  0  0
 18  8  1  0  0  0  0
 19 11  1  0  0  0  0
 20 12  1  0  0  0  0
 21 13  1  0  0  0  0
 22 14  1  0  0  0  0
 22 21  1  0  0  0  0
M  END
>  <ID>
5377315

>  <Supplier>
ChemBridge

>  <clogP>
4.150000000000000e+000

>  <RB>
2

>  <tPSA>
6.463000000000000e+001

>  <Hacc>
4

>  <Hdon>
1

>  <LogSw>
-5.370000000000000e+000

>  <Group>
3

>  <Core>
516

$$$$
9075329
 OpenBabel03312015312D

 23 25  0  0  0  0  0  0  0  0999 V2000
    4.8125    1.8458    0.0000 C   0  0  0  0  0  0  0  0  0  0  0  0
    4.8917    1.1000    0.0000 N   0  0  0  0  0  0  0  0  0  0  0  0
    4.1667    2.2208    0.0000 C   0  0  0  0  0  0  0  0  0  0  0  0
    5.5000    2.1500    0.0000 O   0  0  0  0  0  0  0  0  0  0  0  0
    5.6250    0.9458    0.0000 C   0  0  0  0  0  0  0  0  0  0  0  0
    4.1667    2.9708    0.0000 C   0  0  0  0  0  0  0  0  0  0  0  0
    1.5667    2.2208    0.0000 C   0  0  0  0  0  0  0  0  0  0  0  0
    6.0000    1.5958    0.0000 C   0  0  0  0  0  0  0  0  0  0  0  0
    2.2167    1.8458    0.0000 N   0  0  0  0  0  0  0  0  0  0  0  0
    3.5167    3.3458    0.0000 C   0  0  0  0  0  0  0  0  0  0  0  0
    2.8667    2.2208    0.0000 C   0  0  0  0  0  0  0  0  0  0  0  0
    3.5167    1.8458    0.0000 C   0  0  0  0  0  0  0  0  0  0  0  0
    6.0000    0.2958    0.0000 N   0  0  0  0  0  0  0  0  0  0  0  0
    2.8667    2.9708    0.0000 C   0  0  0  0  0  0  0  0  0  0  0  0
    1.5667    2.9708    0.0000 O   0  0  0  0  0  0  0  0  0  0  0  0
    0.9167    1.8458    0.0000 C   0  0  0  0  0  0  0  0  0  0  0  0
    4.8125    3.3458    0.0000 O   0  0  0  0  0  0  0  0  0  0  0  0
    3.5167    4.0917    0.0000 C   0  0  0  0  0  0  0  0  0  0  0  0
    6.7500    1.5958    0.0000 C   0  0  0  0  0  0  0  0  0  0  0  0
    6.7500    0.2958    0.0000 C   0  0  0  0  0  0  0  0  0  0  0  0
    0.2667    2.2208    0.0000 C   0  0  0  0  0  0  0  0  0  0  0  0
    0.9167    1.0958    0.0000 C   0  0  0  0  0  0  0  0  0  0  0  0
    7.1250    0.9458    0.0000 C   0  0  0  0  0  0  0  0  0  0  0  0
  2  1  2  0  0  0  0
  3  1  1  0  0  0  0
  4  1  1  0  0  0  0
  5  2  1  0  0  0  0
  6  3  1  0  0  0  0
  7  9  1  0  0  0  0
  8  4  1  0  0  0  0
  8  5  2  0  0  0  0
  9 11  1  0  0  0  0
 10  6  2  0  0  0  0
 10 14  1  0  0  0  0
 11 12  1  0  0  0  0
 12  3  2  0  0  0  0
 13  5  1  0  0  0  0
 14 11  2  0  0  0  0
 15  7  2  0  0  0  0
 16  7  1  0  0  0  0
 17  6  1  0  0  0  0
 18 10  1  0  0  0  0
 19  8  1  0  0  0  0
 20 13  2  0  0  0  0
 21 16  1  0  0  0  0
 22 16  1  0  0  0  0
 23 19  2  0  0  0  0
 23 20  1  0  0  0  0
M  END
>  <ID>
9075329

>  <Supplier>
ChemBridge

>  <clogP>
1.916000000000000e+000

>  <RB>
2

>  <tPSA>
8.825000000000004e+001

>  <Hacc>
5

>  <Hdon>
2

>  <LogSw>
-3.107000000000000e+000

>  <Group>
2

>  <Core>
069

$$$$
9033896
 OpenBabel03312015312D

 20 21  0  0  0  0  0  0  0  0999 V2000
    3.5917    2.4625    0.0000 C   0  0  0  0  0  0  0  0  0  0  0  0
    4.2792    2.1583    0.0000 O   0  0  0  0  0  0  0  0  0  0  0  0
    2.9417    2.0875    0.0000 C   0  0  0  0  0  0  0  0  0  0  0  0
    3.6750    3.2083    0.0000 C   0  0  0  0  0  0  0  0  0  0  0  0
    2.3000    2.4625    0.0000 C   0  0  0  0  0  0  0  0  0  0  0  0
    4.7792    2.7208    0.0000 C   0  0  0  0  0  0  0  0  0  0  0  0
    4.4042    3.3708    0.0000 C   0  0  0  0  0  0  0  0  0  0  0  0
    1.6500    2.0875    0.0000 C   0  0  0  0  0  0  0  0  0  0  0  0
    5.9667    3.2458    0.0000 N   0  0  0  0  0  0  0  0  0  0  0  0
    5.5292    2.6458    0.0000 C   0  0  0  0  0  0  0  0  0  0  0  0
    1.0000    2.4625    0.0000 Cl  0  0  0  0  0  0  0  0  0  0  0  0
    2.9417    1.3375    0.0000 C   0  0  0  0  0  0  0  0  0  0  0  0
    2.3000    3.2125    0.0000 C   0  0  0  0  0  0  0  0  0  0  0  0
    7.9042    3.6958    0.0000 O   0  0  0  0  0  0  0  0  0  0  0  0
    2.3000    0.9625    0.0000 C   0  0  0  0  0  0  0  0  0  0  0  0
    6.7167    3.1708    0.0000 C   0  0  3  0  0  0  0  0  0  0  0  0
    1.6500    1.3375    0.0000 C   0  0  0  0  0  0  0  0  0  0  0  0
    7.1542    3.7708    0.0000 C   0  0  0  0  0  0  0  0  0  0  0  0
    7.0167    2.4833    0.0000 C   0  0  0  0  0  0  0  0  0  0  0  0
    7.7667    2.4083    0.0000 C   0  0  0  0  0  0  0  0  0  0  0  0
  2  1  1  0  0  0  0
  3  1  1  0  0  0  0
  4  1  2  0  0  0  0
  5  3  2  0  0  0  0
  6  2  1  0  0  0  0
  7  4  1  0  0  0  0
  7  6  2  0  0  0  0
  8  5  1  0  0  0  0
  8 17  2  0  0  0  0
  9 10  1  0  0  0  0
 10  6  1  0  0  0  0
 11  8  1  0  0  0  0
 12  3  1  0  0  0  0
 13  5  1  0  0  0  0
 14 18  1  0  0  0  0
 15 12  2  0  0  0  0
 16  9  1  0  0  0  0
 17 15  1  0  0  0  0
 18 16  1  0  0  0  0
 19 16  1  0  0  0  0
 20 19  1  0  0  0  0
M  END
>  <ID>
9033896

>  <Supplier>
ChemBridge

>  <clogP>
3.942000000000000e+000

>  <RB>
5

>  <tPSA>
4.540000000000000e+001

>  <Hacc>
3

>  <Hdon>
2

>  <LogSw>
-3.701000000000000e+000

>  <Group>
2

$$$$
7965583
 OpenBabel03312015312D

 29 31  0  0  0  0  0  0  0  0999 V2000
    3.6375    3.3708    0.0000 C   0  0  0  0  0  0  0  0  0  0  0  0
    4.2875    2.9958    0.0000 C   0  0  0  0  0  0  0  0  0  0  0  0
    6.2167    3.1458    0.0000 C   0  0  0  0  0  0  0  0  0  0  0  0
    6.8375    2.7333    0.0000 O   0  0  0  0  0  0  0  0  0  0  0  0
    5.5125    2.8958    0.0000 C   0  0  0  0  0  0  0  0  0  0  0  0
    7.4292    3.1875    0.0000 C   0  0  0  0  0  0  0  0  0  0  0  0
    4.9375    3.3708    0.0000 N   0  0  0  0  0  0  0  0  0  0  0  0
    3.6375    4.1167    0.0000 C   0  0  0  0  0  0  0  0  0  0  0  0
    6.4250    3.8708    0.0000 C   0  0  0  0  0  0  0  0  0  0  0  0
    7.1667    3.8958    0.0000 C   0  0  0  0  0  0  0  0  0  0  0  0
    3.6375    1.1208    0.0000 C   0  0  0  0  0  0  0  0  0  0  0  0
    3.6375    1.8708    0.0000 C   0  0  0  0  0  0  0  0  0  0  0  0
    4.2875    2.2458    0.0000 C   0  0  0  0  0  0  0  0  0  0  0  0
    2.9875    2.9958    0.0000 C   0  0  0  0  0  0  0  0  0  0  0  0
    8.1500    2.9833    0.0000 C   0  0  0  0  0  0  0  0  0  0  0  0
    5.3792    2.1500    0.0000 O   0  0  0  0  0  0  0  0  0  0  0  0
    2.9875    2.2458    0.0000 C   0  0  0  0  0  0  0  0  0  0  0  0
    4.0917    4.3792    0.0000 O   0  0  0  0  0  0  0  0  0  0  0  0
    4.2875    0.7458    0.0000 O   0  0  0  0  0  0  0  0  0  0  0  0
    8.3292    2.2583    0.0000 C   0  0  0  0  0  0  0  0  0  0  0  0
    8.6875    3.5083    0.0000 C   0  0  0  0  0  0  0  0  0  0  0  0
    2.9875    4.4917    0.0000 O   0  0  0  0  0  0  0  0  0  0  0  0
    9.5917    2.5708    0.0000 C   0  0  0  0  0  0  0  0  0  0  0  0
    2.9875    0.7458    0.0000 O   0  0  0  0  0  0  0  0  0  0  0  0
    9.0542    2.0500    0.0000 C   0  0  0  0  0  0  0  0  0  0  0  0
    9.4042    3.2958    0.0000 C   0  0  0  0  0  0  0  0  0  0  0  0
   10.3125    2.3625    0.0000 F   0  0  0  0  0  0  0  0  0  0  0  0
    2.9875    5.2417    0.0000 C   0  0  0  0  0  0  0  0  0  0  0  0
    2.9875   -0.0042    0.0000 C   0  0  0  0  0  0  0  0  0  0  0  0
  2  1  1  0  0  0  0
  3  5  1  0  0  0  0
  4  3  1  0  0  0  0
  5  7  1  0  0  0  0
  6  4  1  0  0  0  0
  7  2  1  0  0  0  0
  8  1  1  0  0  0  0
  9  3  2  0  0  0  0
 10  9  1  0  0  0  0
 10  6  2  0  0  0  0
 11 12  1  0  0  0  0
 12 17  2  0  0  0  0
 12 13  1  0  0  0  0
 13  2  2  0  0  0  0
 14  1  2  0  0  0  0
 15  6  1  0  0  0  0
 16  5  2  0  0  0  0
 17 14  1  0  0  0  0
 18  8  2  0  0  0  0
 19 11  2  0  0  0  0
 20 15  2  0  0  0  0
 21 15  1  0  0  0  0
 22  8  1  0  0  0  0
 23 26  1  0  0  0  0
 24 11  1  0  0  0  0
 25 20  1  0  0  0  0
 25 23  2  0  0  0  0
 26 21  2  0  0  0  0
 27 23  1  0  0  0  0
 28 22  1  0  0  0  0
 29 24  1  0  0  0  0
M  END
>  <ID>
7965583

>  <Supplier>
ChemBridge

>  <clogP>
4.643000000000000e+000

>  <RB>
5

>  <tPSA>
9.484000000000000e+001

>  <Hacc>
6

>  <Hdon>
1

>  <LogSw>
-6.061999999999999e+000

>  <Group>
1

>  <Core>
466

$$$$
9033895
 OpenBabel03312015312D

 21 23  0  0  0  0  0  0  0  0999 V2000
    3.5542    1.2458    0.0000 C   0  0  0  0  0  0  0  0  0  0  0  0
    3.9292    1.8958    0.0000 N   0  0  0  0  0  0  0  0  0  0  0  0
    2.8042    1.2458    0.0000 C   0  0  0  0  0  0  0  0  0  0  0  0
    4.6792    1.8958    0.0000 C   0  0  0  0  0  0  0  0  0  0  0  0
    6.9292    1.8958    0.0000 N   0  0  0  0  0  0  0  0  0  0  0  0
    5.8042    2.5458    0.0000 C   0  0  0  0  0  0  0  0  0  0  0  0
    3.9292    0.5958    0.0000 O   0  0  0  0  0  0  0  0  0  0  0  0
    6.1792    1.8958    0.0000 C   0  0  0  0  0  0  0  0  0  0  0  0
    5.0542    2.5458    0.0000 C   0  0  0  0  0  0  0  0  0  0  0  0
    2.4292    1.8958    0.0000 C   0  0  0  0  0  0  0  0  0  0  0  0
    2.4292    0.5958    0.0000 C   0  0  0  0  0  0  0  0  0  0  0  0
    5.8042    1.2458    0.0000 C   0  0  0  0  0  0  0  0  0  0  0  0
    5.0542    1.2458    0.0000 C   0  0  0  0  0  0  0  0  0  0  0  0
    1.3042    1.2458    0.0000 C   0  0  0  0  0  0  0  0  0  0  0  0
    1.6792    0.5958    0.0000 C   0  0  0  0  0  0  0  0  0  0  0  0
    1.6792    1.8958    0.0000 C   0  0  0  0  0  0  0  0  0  0  0  0
    0.5542    1.2458    0.0000 O   0  0  0  0  0  0  0  0  0  0  0  0
    7.3042    2.5458    0.0000 C   0  0  0  0  0  0  0  0  0  0  0  0
    6.1792    3.1958    0.0000 C   0  0  0  0  0  0  0  0  0  0  0  0
    0.1792    1.8958    0.0000 C   0  0  0  0  0  0  0  0  0  0  0  0
    6.9292    3.1958    0.0000 C   0  0  0  0  0  0  0  0  0  0  0  0
  2  1  1  0  0  0  0
  3  1  1  0  0  0  0
  4  2  1  0  0  0  0
  5  8  1  0  0  0  0
  6  9  2  0  0  0  0
  6  8  1  0  0  0  0
  7  1  2  0  0  0  0
  8 12  2  0  0  0  0
  9  4  1  0  0  0  0
 10  3  2  0  0  0  0
 11  3  1  0  0  0  0
 12 13  1  0  0  0  0
 13  4  2  0  0  0  0
 14 15  1  0  0  0  0
 15 11  2  0  0  0  0
 16 10  1  0  0  0  0
 16 14  2  0  0  0  0
 17 14  1  0  0  0  0
 18  5  2  0  0  0  0
 18 21  1  0  0  0  0
 19  6  1  0  0  0  0
 20 17  1  0  0  0  0
 21 19  2  0  0  0  0
M  END
>  <ID>
9033895

>  <Supplier>
ChemBridge

>  <clogP>
3.280000000000000e+000

>  <RB>
2

>  <tPSA>
5.121999999999999e+001

>  <Hacc>
3

>  <Hdon>
1

>  <LogSw>
-4.031000000000002e+000

>  <Group>
3

$$$$
7965582
 OpenBabel03312015312D

 32 34  0  0  0  0  0  0  0  0999 V2000
    3.6417    1.8583    0.0000 C   0  0  0  0  0  0  0  0  0  0  0  0
    1.6917    2.2333    0.0000 C   0  0  0  0  0  0  0  0  0  0  0  0
    2.9917    2.2333    0.0000 N   0  0  0  0  0  0  0  0  0  0  0  0
    4.2917    2.2333    0.0000 C   0  0  0  0  0  0  0  0  0  0  0  0
    2.3417    1.8583    0.0000 C   0  0  0  0  0  0  0  0  0  0  0  0
    4.9417    1.8583    0.0000 C   0  0  0  0  0  0  0  0  0  0  0  0
    1.6917    2.9833    0.0000 C   0  0  0  0  0  0  0  0  0  0  0  0
    5.5917    2.2333    0.0000 C   0  0  0  0  0  0  0  0  0  0  0  0
    6.2417    1.8583    0.0000 N   0  0  0  0  0  0  0  0  0  0  0  0
    6.8917    2.2333    0.0000 C   0  0  0  0  0  0  0  0  0  0  0  0
    3.6417    1.1083    0.0000 O   0  0  0  0  0  0  0  0  0  0  0  0
    2.3417    3.3583    0.0000 O   0  0  0  0  0  0  0  0  0  0  0  0
    6.8917    2.9833    0.0000 O   0  0  0  0  0  0  0  0  0  0  0  0
    1.0417    3.3583    0.0000 O   0  0  0  0  0  0  0  0  0  0  0  0
    1.0417    1.8583    0.0000 C   0  0  0  0  0  0  0  0  0  0  0  0
    4.2917    2.9833    0.0000 C   0  0  0  0  0  0  0  0  0  0  0  0
    5.5917    2.9833    0.0000 C   0  0  0  0  0  0  0  0  0  0  0  0
    4.9417    1.1083    0.0000 C   0  0  0  0  0  0  0  0  0  0  0  0
    9.4875    2.2333    0.0000 C   0  0  0  0  0  0  0  0  0  0  0  0
    2.3417    1.1083    0.0000 C   0  0  0  0  0  0  0  0  0  0  0  0
    7.5417    1.8583    0.0000 C   0  0  0  0  0  0  0  0  0  0  0  0
    8.1875    2.2333    0.0000 C   0  0  0  0  0  0  0  0  0  0  0  0
    4.9417    3.3583    0.0000 C   0  0  0  0  0  0  0  0  0  0  0  0
    8.8375    1.8583    0.0000 C   0  0  0  0  0  0  0  0  0  0  0  0
    1.0417    4.1042    0.0000 C   0  0  0  0  0  0  0  0  0  0  0  0
   10.1375    1.8583    0.0000 C   0  0  0  0  0  0  0  0  0  0  0  0
    9.4875    2.9833    0.0000 C   0  0  0  0  0  0  0  0  0  0  0  0
    1.0417    1.1083    0.0000 C   0  0  0  0  0  0  0  0  0  0  0  0
    1.6917    0.7333    0.0000 C   0  0  0  0  0  0  0  0  0  0  0  0
   10.1375    3.3583    0.0000 C   0  0  0  0  0  0  0  0  0  0  0  0
   10.7875    2.2333    0.0000 C   0  0  0  0  0  0  0  0  0  0  0  0
   10.7875    2.9833    0.0000 C   0  0  0  0  0  0  0  0  0  0  0  0
  2  5  2  0  0  0  0
  3  1  1  0  0  0  0
  4  1  1  0  0  0  0
  5  3  1  0  0  0  0
  6  4  2  0  0  0  0
  7  2  1  0  0  0  0
  8  6  1  0  0  0  0
  9  8  1  0  0  0  0
 10  9  1  0  0  0  0
 11  1  2  0  0  0  0
 12  7  2  0  0  0  0
 13 10  2  0  0  0  0
 14  7  1  0  0  0  0
 15  2  1  0  0  0  0
 16  4  1  0  0  0  0
 17 23  1  0  0  0  0
 17  8  2  0  0  0  0
 18  6  1  0  0  0  0
 19 24  1  0  0  0  0
 20  5  1  0  0  0  0
 21 10  1  0  0  0  0
 22 21  1  0  0  0  0
 23 16  2  0  0  0  0
 24 22  1  0  0  0  0
 25 14  1  0  0  0  0
 26 19  2  0  0  0  0
 27 19  1  0  0  0  0
 28 29  1  0  0  0  0
 28 15  2  0  0  0  0
 29 20  2  0  0  0  0
 30 27  2  0  0  0  0
 31 26  1  0  0  0  0
 32 30  1  0  0  0  0
 32 31  2  0  0  0  0
M  END
>  <ID>
7965582

>  <Supplier>
ChemBridge

>  <clogP>
4.387000000000000e+000

>  <RB>
8

>  <tPSA>
8.450000000000004e+001

>  <Hacc>
4

>  <Hdon>
2

>  <LogSw>
-6.085000000000000e+000

>  <Group>
1

>  <Core>
146

$$$$
7724393
 OpenBabel03312015312D

 22 24  0  0  0  0  0  0  0  0999 V2000
    4.7125   -3.2500    0.0000 C   0  0  3  0  0  0  0  0  0  0  0  0
    5.4292   -2.8375    0.0000 C   0  0  0  0  0  0  0  0  0  0  0  0
    4.7125   -4.0667    0.0000 C   0  0  0  0  0  0  0  0  0  0  0  0
    4.7042   -4.9000    0.0000 N   0  0  0  0  0  0  0  0  0  0  0  0
    8.2750   -4.4917    0.0000 C   0  0  0  0  0  0  0  0  0  0  0  0
    6.1417   -3.2542    0.0000 N   0  0  0  0  0  0  0  0  0  0  0  0
    8.2750   -5.3167    0.0000 C   0  0  0  0  0  0  0  0  0  0  0  0
    9.0625   -4.2292    0.0000 O   0  0  0  0  0  0  0  0  0  0  0  0
    9.0625   -5.5667    0.0000 O   0  0  0  0  0  0  0  0  0  0  0  0
    9.5417   -4.9000    0.0000 C   0  0  0  0  0  0  0  0  0  0  0  0
    4.0042   -2.8375    0.0000 C   0  0  0  0  0  0  0  0  0  0  0  0
    7.5625   -4.0792    0.0000 C   0  0  0  0  0  0  0  0  0  0  0  0
    5.4292   -2.0125    0.0000 O   0  0  0  0  0  0  0  0  0  0  0  0
    7.5542   -5.7292    0.0000 C   0  0  0  0  0  0  0  0  0  0  0  0
    6.8542   -4.4917    0.0000 C   0  0  0  0  0  0  0  0  0  0  0  0
    6.1417   -4.0792    0.0000 C   0  0  0  0  0  0  0  0  0  0  0  0
    6.8417   -5.3167    0.0000 C   0  0  0  0  0  0  0  0  0  0  0  0
    4.0042   -2.0042    0.0000 C   0  0  0  0  0  0  0  0  0  0  0  0
    3.2917   -3.2417    0.0000 C   0  0  0  0  0  0  0  0  0  0  0  0
    2.5792   -2.8375    0.0000 C   0  0  0  0  0  0  0  0  0  0  0  0
    3.2917   -1.5917    0.0000 C   0  0  0  0  0  0  0  0  0  0  0  0
    2.5750   -2.0042    0.0000 C   0  0  0  0  0  0  0  0  0  0  0  0
  2  1  1  0  0  0  0
  3  1  1  0  0  0  0
  4  3  3  0  0  0  0
  5 12  2  0  0  0  0
  6  2  1  0  0  0  0
  7 14  2  0  0  0  0
  7  5  1  0  0  0  0
  8  5  1  0  0  0  0
  9  7  1  0  0  0  0
 10  8  1  0  0  0  0
 10  9  1  0  0  0  0
 11  1  1  0  0  0  0
 12 15  1  0  0  0  0
 13  2  2  0  0  0  0
 14 17  1  0  0  0  0
 15 16  1  0  0  0  0
 16  6  1  0  0  0  0
 17 15  2  0  0  0  0
 18 11  2  0  0  0  0
 19 11  1  0  0  0  0
 20 19  2  0  0  0  0
 21 18  1  0  0  0  0
 22 20  1  0  0  0  0
 22 21  2  0  0  0  0
M  END
>  <ID>
7724393

>  <Supplier>
ChemBridge

>  <clogP>
1.774000000000000e+000

>  <RB>
4

>  <tPSA>
7.134999999999997e+001

>  <Hacc>
4

>  <Hdon>
1

>  <LogSw>
-4.139000000000000e+000

>  <Group>
2

$$$$
5346076
 OpenBabel03312015312D

 18 20  0  0  0  0  0  0  0  0999 V2000
    1.6542    1.0708    0.0000 C   0  0  3  0  0  0  0  0  0  0  0  0
    2.7292    1.2625    0.0000 C   0  0  0  0  0  0  0  0  0  0  0  0
   -0.5125    1.1708    0.0000 C   0  0  3  0  0  0  0  0  0  0  0  0
    0.5375    0.7000    0.0000 C   0  0  0  0  0  0  0  0  0  0  0  0
    1.6542    2.0333    0.0000 C   0  0  0  0  0  0  0  0  0  0  0  0
    1.1875    0.1958    0.0000 C   0  0  0  0  0  0  0  0  0  0  0  0
    0.5875    2.4625    0.0000 C   0  0  3  0  0  0  0  0  0  0  0  0
    0.0500    0.6458    0.0000 C   0  0  3  0  0  0  0  0  0  0  0  0
    3.4000    0.4833    0.0000 N   0  0  0  0  0  0  0  0  0  0  0  0
    3.2292    2.1125    0.0000 C   0  0  0  0  0  0  0  0  0  0  0  0
    4.2500    2.6833    0.0000 N   0  0  0  0  0  0  0  0  0  0  0  0
   -1.1625    0.2333    0.0000 C   0  0  0  0  0  0  0  0  0  0  0  0
   -0.5125    2.0708    0.0000 C   0  0  0  0  0  0  0  0  0  0  0  0
    0.0500    1.7708    0.0000 C   0  0  0  0  0  0  0  0  0  0  0  0
    4.5542    0.6833    0.0000 O   0  0  0  0  0  0  0  0  0  0  0  0
    4.2500    3.7208    0.0000 O   0  0  0  0  0  0  0  0  0  0  0  0
   -1.1958    2.0333    0.0000 C   0  0  0  0  0  0  0  0  0  0  0  0
   -0.7833    3.0500    0.0000 C   0  0  0  0  0  0  0  0  0  0  0  0
  2  1  1  0  0  0  0
  3  4  1  0  0  0  0
  3 12  1  0  0  0  0
  3 13  1  0  0  0  0
  4  1  1  0  0  0  0
  5  1  1  0  0  0  0
  6  1  1  0  0  0  0
  7  5  1  0  0  0  0
  8  6  1  0  0  0  0
  9  2  2  0  0  0  0
 10  2  1  0  0  0  0
 11 10  2  0  0  0  0
 12  8  1  0  0  0  0
 13  7  1  0  0  0  0
 14  8  1  0  0  0  0
 14  7  1  0  0  0  0
 15  9  1  0  0  0  0
 16 11  1  0  0  0  0
 17  3  1  0  0  0  0
 18 17  1  0  0  0  0
M  END
>  <ID>
5346076

>  <Supplier>
ChemBridge

>  <clogP>
4.580000000000000e+000

>  <RB>
2

>  <tPSA>
6.518000000000001e+001

>  <Hacc>
4

>  <Hdon>
0

>  <LogSw>
-4.938000000000002e+000

>  <Group>
3

$$$$
6299396
 OpenBabel03312015312D

 20 21  0  0  0  0  0  0  0  0999 V2000
    7.1917   -3.7292    0.0000 N   0  0  0  0  0  0  0  0  0  0  0  0
    6.6917   -4.2917    0.0000 C   0  0  0  0  0  0  0  0  0  0  0  0
    6.8167   -3.0792    0.0000 N   0  0  0  0  0  0  0  0  0  0  0  0
    6.0042   -3.9792    0.0000 C   0  0  0  0  0  0  0  0  0  0  0  0
    6.0875   -3.2375    0.0000 C   0  0  0  0  0  0  0  0  0  0  0  0
    4.0542   -2.8542    0.0000 C   0  0  0  0  0  0  0  0  0  0  0  0
    4.7042   -3.9792    0.0000 N   0  0  0  0  0  0  0  0  0  0  0  0
    5.3542   -4.3542    0.0000 C   0  0  0  0  0  0  0  0  0  0  0  0
    7.9417   -3.8125    0.0000 C   0  0  0  0  0  0  0  0  0  0  0  0
    4.7042   -3.2292    0.0000 N   0  0  0  0  0  0  0  0  0  0  0  0
    4.0542   -2.1042    0.0000 O   0  0  0  0  0  0  0  0  0  0  0  0
    6.8417   -5.0250    0.0000 O   0  0  0  0  0  0  0  0  0  0  0  0
    3.4042   -3.2292    0.0000 O   0  0  0  0  0  0  0  0  0  0  0  0
    5.5292   -2.7375    0.0000 C   0  0  0  0  0  0  0  0  0  0  0  0
    8.3792   -3.2042    0.0000 C   0  0  0  0  0  0  0  0  0  0  0  0
    8.2417   -4.4917    0.0000 C   0  0  0  0  0  0  0  0  0  0  0  0
    2.7542   -2.8542    0.0000 C   0  0  0  0  0  0  0  0  0  0  0  0
    8.9917   -4.5750    0.0000 C   0  0  0  0  0  0  0  0  0  0  0  0
    9.1292   -3.2792    0.0000 C   0  0  0  0  0  0  0  0  0  0  0  0
    9.4292   -3.9667    0.0000 C   0  0  0  0  0  0  0  0  0  0  0  0
  2  1  1  0  0  0  0
  3  1  1  0  0  0  0
  4  2  2  0  0  0  0
  4  5  1  0  0  0  0
  5  3  2  0  0  0  0
  6 10  1  0  0  0  0
  7  8  2  0  0  0  0
  8  4  1  0  0  0  0
  9  1  1  0  0  0  0
 10  7  1  0  0  0  0
 11  6  2  0  0  0  0
 12  2  1  0  0  0  0
 13  6  1  0  0  0  0
 14  5  1  0  0  0  0
 15  9  2  0  0  0  0
 16  9  1  0  0  0  0
 17 13  1  0  0  0  0
 18 16  2  0  0  0  0
 19 15  1  0  0  0  0
 19 20  2  0  0  0  0
 20 18  1  0  0  0  0
M  END
>  <ID>
6299396

>  <Supplier>
ChemBridge

>  <clogP>
2.740000000000000e+000

>  <RB>
3

>  <tPSA>
8.874000000000002e+001

>  <Hacc>
6

>  <Hdon>
2

>  <LogSw>
-3.541000000000000e+000

>  <Group>
1

$$$$
7965587
 OpenBabel03312015312D

 20 23  0  0  0  0  0  0  0  0999 V2000
    3.3292    0.8375    0.0000 N   0  0  0  0  0  0  0  0  0  0  0  0
    3.8042    1.4208    0.0000 C   0  0  3  0  0  0  0  0  0  0  0  0
    2.3292    1.6583    0.0000 C   0  0  0  0  0  0  0  0  0  0  0  0
    2.8042    2.2458    0.0000 C   0  0  3  0  0  0  0  0  0  0  0  0
    2.5917    0.9583    0.0000 C   0  0  0  0  0  0  0  0  0  0  0  0
    3.5417    2.1208    0.0000 C   0  0  3  0  0  0  0  0  0  0  0  0
    4.5500    1.3000    0.0000 C   0  0  0  0  0  0  0  0  0  0  0  0
    2.6875    2.9833    0.0000 C   0  0  0  0  0  0  0  0  0  0  0  0
    1.5875    1.7833    0.0000 C   0  0  0  0  0  0  0  0  0  0  0  0
    3.3542    3.3208    0.0000 C   0  0  0  0  0  0  0  0  0  0  0  0
    2.1167    0.3750    0.0000 C   0  0  0  0  0  0  0  0  0  0  0  0
    5.5542    0.4750    0.0000 N   0  0  0  0  0  0  0  0  0  0  0  0
    1.1125    1.2000    0.0000 C   0  0  0  0  0  0  0  0  0  0  0  0
    3.8875    2.7875    0.0000 C   0  0  0  0  0  0  0  0  0  0  0  0
    1.3792    0.4958    0.0000 C   0  0  0  0  0  0  0  0  0  0  0  0
    4.8167    0.5958    0.0000 C   0  0  0  0  0  0  0  0  0  0  0  0
    0.3750    1.3208    0.0000 F   0  0  0  0  0  0  0  0  0  0  0  0
    5.0250    1.8833    0.0000 C   0  0  0  0  0  0  0  0  0  0  0  0
    6.0292    1.0583    0.0000 C   0  0  0  0  0  0  0  0  0  0  0  0
    5.7625    1.7583    0.0000 C   0  0  0  0  0  0  0  0  0  0  0  0
  2  1  1  0  0  0  0
  3  5  2  0  0  0  0
  4  3  1  0  0  0  0
  5  1  1  0  0  0  0
  6  2  1  0  0  0  0
  6  4  1  0  0  0  0
  7  2  1  0  0  0  0
  8  4  1  0  0  0  0
  8 10  2  0  0  0  0
  9  3  1  0  0  0  0
 10 14  1  0  0  0  0
 11  5  1  0  0  0  0
 12 16  2  0  0  0  0
 12 19  1  0  0  0  0
 13 15  1  0  0  0  0
 13  9  2  0  0  0  0
 14  6  1  0  0  0  0
 15 11  2  0  0  0  0
 16  7  1  0  0  0  0
 17 13  1  0  0  0  0
 18  7  2  0  0  0  0
 19 20  2  0  0  0  0
 20 18  1  0  0  0  0
M  END
>  <ID>
7965587

>  <Supplier>
ChemBridge

>  <clogP>
2.960000000000000e+000

>  <RB>
1

>  <tPSA>
2.492000000000000e+001

>  <Hacc>
1

>  <Hdon>
1

>  <LogSw>
-2.371000000000000e+000

>  <Group>
2

>  <Core>
359

$$$$
6211644
 OpenBabel03312015312D

 27 29  0  0  0  0  0  0  0  0999 V2000
    4.6500    2.0833    0.0000 N   0  0  0  0  0  0  0  0  0  0  0  0
    4.0167    0.9458    0.0000 C   0  0  0  0  0  0  0  0  0  0  0  0
    4.6625    1.3333    0.0000 C   0  0  0  0  0  0  0  0  0  0  0  0
    3.9917    2.4458    0.0000 C   0  0  0  0  0  0  0  0  0  0  0  0
    3.3542    2.0625    0.0000 N   0  0  0  0  0  0  0  0  0  0  0  0
    3.3625    1.3125    0.0000 C   0  0  0  0  0  0  0  0  0  0  0  0
    5.2917    2.4583    0.0000 C   0  0  0  0  0  0  0  0  0  0  0  0
    4.0250    0.1958    0.0000 C   0  0  0  0  0  0  0  0  0  0  0  0
    5.2875    3.2083    0.0000 C   0  0  0  0  0  0  0  0  0  0  0  0
    3.9875    3.1958    0.0000 O   0  0  0  0  0  0  0  0  0  0  0  0
    5.3167    0.9625    0.0000 O   0  0  0  0  0  0  0  0  0  0  0  0
    5.9292    3.5958    0.0000 C   0  0  0  0  0  0  0  0  0  0  0  0
    2.8417   -1.1500    0.0000 C   0  0  0  0  0  0  0  0  0  0  0  0
    2.7167    0.9333    0.0000 O   0  0  0  0  0  0  0  0  0  0  0  0
    3.3792   -0.1875    0.0000 C   0  0  0  0  0  0  0  0  0  0  0  0
    5.9500    2.0958    0.0000 C   0  0  0  0  0  0  0  0  0  0  0  0
    2.2875   -0.8292    0.0000 C   0  0  0  0  0  0  0  0  0  0  0  0
    3.3875   -0.8250    0.0000 C   0  0  0  0  0  0  0  0  0  0  0  0
    6.5875    3.2333    0.0000 C   0  0  0  0  0  0  0  0  0  0  0  0
    6.5917    2.4750    0.0000 C   0  0  0  0  0  0  0  0  0  0  0  0
    2.2792   -0.2042    0.0000 C   0  0  0  0  0  0  0  0  0  0  0  0
    2.8292    0.1208    0.0000 C   0  0  0  0  0  0  0  0  0  0  0  0
    2.8542   -1.7917    0.0000 O   0  0  0  0  0  0  0  0  0  0  0  0
    1.7292   -1.1625    0.0000 O   0  0  0  0  0  0  0  0  0  0  0  0
    5.9167    4.3375    0.0000 C   0  0  0  0  0  0  0  0  0  0  0  0
    7.2292    3.6083    0.0000 C   0  0  0  0  0  0  0  0  0  0  0  0
    2.3000   -2.1167    0.0000 C   0  0  0  0  0  0  0  0  0  0  0  0
  2  3  1  0  0  0  0
  2  6  1  0  0  0  0
  3  1  1  0  0  0  0
  4  1  1  0  0  0  0
  5  4  1  0  0  0  0
  6  5  1  0  0  0  0
  7  1  1  0  0  0  0
  8  2  2  0  0  0  0
  9  7  2  0  0  0  0
 10  4  2  0  0  0  0
 11  3  2  0  0  0  0
 12  9  1  0  0  0  0
 13 18  1  0  0  0  0
 14  6  2  0  0  0  0
 15  8  1  0  0  0  0
 16  7  1  0  0  0  0
 17 21  1  0  0  0  0
 17 13  2  0  0  0  0
 18 15  2  0  0  0  0
 19 20  1  0  0  0  0
 19 12  2  0  0  0  0
 20 16  2  0  0  0  0
 21 22  2  0  0  0  0
 22 15  1  0  0  0  0
 23 13  1  0  0  0  0
 24 17  1  0  0  0  0
 25 12  1  0  0  0  0
 26 19  1  0  0  0  0
 27 23  1  0  0  0  0
M  END
>  <ID>
6211644

>  <Supplier>
ChemBridge

>  <clogP>
4.140000000000000e+000

>  <RB>
2

>  <tPSA>
9.594000000000000e+001

>  <Hacc>
5

>  <Hdon>
2

>  <LogSw>
-5.407000000000000e+000

>  <Group>
2

>  <Core>
006

$$$$
7965586
 OpenBabel03312015312D

 20 22  0  0  0  0  0  0  0  0999 V2000
    5.6292    2.0958    0.0000 S   0  0  0  0  0  0  0  0  0  0  0  0
    0.7417    1.6708    0.0000 N   0  3  0  0  0  0  0  0  0  0  0  0
    2.6167    1.0208    0.0000 C   0  0  0  0  0  0  0  0  0  0  0  0
    3.7292    1.5125    0.0000 C   0  0  0  0  0  0  0  0  0  0  0  0
    3.1167    0.4625    0.0000 O   0  0  0  0  0  0  0  0  0  0  0  0
    2.9917    1.6708    0.0000 C   0  0  0  0  0  0  0  0  0  0  0  0
    3.8042    0.7708    0.0000 C   0  0  0  0  0  0  0  0  0  0  0  0
    5.0167    1.6500    0.0000 C   0  0  0  0  0  0  0  0  0  0  0  0
    4.3375    1.9583    0.0000 C   0  0  0  0  0  0  0  0  0  0  0  0
    1.8667    1.0208    0.0000 C   0  0  0  0  0  0  0  0  0  0  0  0
    1.4917    1.6708    0.0000 C   0  0  0  0  0  0  0  0  0  0  0  0
    2.6167    2.3208    0.0000 C   0  0  0  0  0  0  0  0  0  0  0  0
    6.2125    1.6208    0.0000 O   0  0  0  0  0  0  0  0  0  0  0  0
    6.1500    2.6333    0.0000 O   0  0  0  0  0  0  0  0  0  0  0  0
    0.3667    2.3208    0.0000 O   0  5  0  0  0  0  0  0  0  0  0  0
    0.3667    1.0208    0.0000 O   0  0  0  0  0  0  0  0  0  0  0  0
    5.1375    2.6583    0.0000 N   0  0  0  0  0  0  0  0  0  0  0  0
    1.8667    2.3208    0.0000 C   0  0  0  0  0  0  0  0  0  0  0  0
    4.4917    0.4625    0.0000 C   0  0  0  0  0  0  0  0  0  0  0  0
    5.1000    0.9083    0.0000 C   0  0  0  0  0  0  0  0  0  0  0  0
  2 11  1  0  0  0  0
  3  6  2  0  0  0  0
  3  5  1  0  0  0  0
  4  9  1  0  0  0  0
  4  7  2  0  0  0  0
  5  7  1  0  0  0  0
  6  4  1  0  0  0  0
  7 19  1  0  0  0  0
  8  1  1  0  0  0  0
  9  8  2  0  0  0  0
 10  3  1  0  0  0  0
 11 18  1  0  0  0  0
 11 10  2  0  0  0  0
 12  6  1  0  0  0  0
 13  1  2  0  0  0  0
 14  1  2  0  0  0  0
 15  2  1  0  0  0  0
 16  2  2  0  0  0  0
 17  1  1  0  0  0  0
 18 12  2  0  0  0  0
 19 20  2  0  0  0  0
 20  8  1  0  0  0  0
M  CHG  2   2   1  15  -1
M  END
>  <ID>
7965586

>  <Supplier>
ChemBridge

>  <clogP>
2.124000000000000e+000

>  <RB>
1

>  <tPSA>
1.164400000000000e+002

>  <Hacc>
6

>  <Hdon>
1

>  <LogSw>
-4.646000000000000e+000

>  <Group>
1

$$$$
6683371
 OpenBabel03312015312D

 27 29  0  0  0  0  0  0  0  0999 V2000
    2.1750   -2.2667    0.0000 C   0  0  0  0  0  0  0  0  0  0  0  0
    2.2542   -1.4500    0.0000 C   0  0  0  0  0  0  0  0  0  0  0  0
    2.9292   -2.6042    0.0000 S   0  0  0  0  0  0  0  0  0  0  0  0
    3.0625   -1.2792    0.0000 C   0  0  0  0  0  0  0  0  0  0  0  0
    3.4792   -1.9917    0.0000 C   0  0  0  0  0  0  0  0  0  0  0  0
    1.4625   -2.6875    0.0000 N   0  0  0  0  0  0  0  0  0  0  0  0
    1.6375   -0.9042    0.0000 C   0  0  0  0  0  0  0  0  0  0  0  0
    0.0375   -5.1667    0.0000 C   0  0  0  0  0  0  0  0  0  0  0  0
   -0.6750   -4.7542    0.0000 C   0  0  0  0  0  0  0  0  0  0  0  0
    0.0417   -5.9917    0.0000 C   0  0  0  0  0  0  0  0  0  0  0  0
    1.4667   -3.5125    0.0000 C   0  0  0  0  0  0  0  0  0  0  0  0
    0.7542   -4.7542    0.0000 O   0  0  0  0  0  0  0  0  0  0  0  0
   -0.6708   -6.4125    0.0000 C   0  0  0  0  0  0  0  0  0  0  0  0
   -1.3958   -5.1667    0.0000 C   0  0  0  0  0  0  0  0  0  0  0  0
    1.8042   -0.0917    0.0000 O   0  0  0  0  0  0  0  0  0  0  0  0
   -1.3958   -5.9917    0.0000 C   0  0  0  0  0  0  0  0  0  0  0  0
    2.1792   -3.9167    0.0000 O   0  0  0  0  0  0  0  0  0  0  0  0
    0.7542   -3.9292    0.0000 C   0  0  0  0  0  0  0  0  0  0  0  0
    0.8542   -1.1625    0.0000 N   0  0  0  0  0  0  0  0  0  0  0  0
    3.4667   -0.5625    0.0000 C   0  0  0  0  0  0  0  0  0  0  0  0
    4.2917   -1.9792    0.0000 C   0  0  0  0  0  0  0  0  0  0  0  0
   -0.6708   -3.9292    0.0000 C   0  0  0  0  0  0  0  0  0  0  0  0
    0.7542   -6.4042    0.0000 C   0  0  0  0  0  0  0  0  0  0  0  0
   -2.1083   -6.4042    0.0000 C   0  0  0  0  0  0  0  0  0  0  0  0
    0.2417   -0.6125    0.0000 C   0  0  0  0  0  0  0  0  0  0  0  0
    4.2917   -0.5542    0.0000 C   0  0  0  0  0  0  0  0  0  0  0  0
    4.7042   -1.2667    0.0000 C   0  0  0  0  0  0  0  0  0  0  0  0
  2  1  2  0  0  0  0
  3  1  1  0  0  0  0
  4  2  1  0  0  0  0
  5  3  1  0  0  0  0
  5  4  2  0  0  0  0
  6  1  1  0  0  0  0
  7  2  1  0  0  0  0
  8 12  1  0  0  0  0
  9  8  2  0  0  0  0
 10  8  1  0  0  0  0
 11  6  1  0  0  0  0
 12 18  1  0  0  0  0
 13 10  2  0  0  0  0
 14  9  1  0  0  0  0
 15  7  2  0  0  0  0
 16 13  1  0  0  0  0
 16 14  2  0  0  0  0
 17 11  2  0  0  0  0
 18 11  1  0  0  0  0
 19  7  1  0  0  0  0
 20  4  1  0  0  0  0
 21  5  1  0  0  0  0
 22  9  1  0  0  0  0
 23 10  1  0  0  0  0
 24 16  1  0  0  0  0
 25 19  1  0  0  0  0
 26 20  1  0  0  0  0
 26 27  1  0  0  0  0
 27 21  1  0  0  0  0
M  END
>  <ID>
6683371

>  <Supplier>
ChemBridge

>  <clogP>
4.910000000000000e+000

>  <RB>
5

>  <tPSA>
6.743000000000001e+001

>  <Hacc>
3

>  <Hdon>
2

>  <LogSw>
-6.211000000000000e+000

>  <Group>
2

>  <Core>
097

$$$$
9083757
 OpenBabel03312015312D

 27 29  0  0  0  0  0  0  0  0999 V2000
    2.9667    1.3458    0.0000 N   0  0  0  0  0  0  0  0  0  0  0  0
    2.2250    1.4208    0.0000 C   0  0  0  0  0  0  0  0  0  0  0  0
    3.1250    0.6125    0.0000 C   0  0  0  0  0  0  0  0  0  0  0  0
    1.9167    0.7375    0.0000 N   0  0  0  0  0  0  0  0  0  0  0  0
    2.4792    0.2375    0.0000 O   0  0  0  0  0  0  0  0  0  0  0  0
    5.1042    0.4458    0.0000 C   0  0  0  0  0  0  0  0  0  0  0  0
    4.4167    0.7458    0.0000 N   0  0  0  0  0  0  0  0  0  0  0  0
    3.8125    0.3083    0.0000 C   0  0  0  0  0  0  0  0  0  0  0  0
    1.8500    2.0708    0.0000 C   0  0  0  0  0  0  0  0  0  0  0  0
    7.6875    0.7125    0.0000 C   0  0  0  0  0  0  0  0  0  0  0  0
    7.0042    1.0208    0.0000 C   0  0  0  0  0  0  0  0  0  0  0  0
    6.3917    0.5833    0.0000 O   0  0  0  0  0  0  0  0  0  0  0  0
    5.7125    0.8833    0.0000 C   0  0  0  0  0  0  0  0  0  0  0  0
    5.1792   -0.3042    0.0000 O   0  0  0  0  0  0  0  0  0  0  0  0
    8.2917    1.1583    0.0000 C   0  0  0  0  0  0  0  0  0  0  0  0
    2.2250    2.7208    0.0000 C   0  0  0  0  0  0  0  0  0  0  0  0
    1.1000    2.0708    0.0000 C   0  0  0  0  0  0  0  0  0  0  0  0
    6.9250    1.7625    0.0000 C   0  0  0  0  0  0  0  0  0  0  0  0
    8.2167    1.9000    0.0000 C   0  0  0  0  0  0  0  0  0  0  0  0
    1.1000    3.3708    0.0000 C   0  0  0  0  0  0  0  0  0  0  0  0
    7.5292    2.2083    0.0000 C   0  0  0  0  0  0  0  0  0  0  0  0
    1.8500    3.3708    0.0000 C   0  0  0  0  0  0  0  0  0  0  0  0
    0.7250    2.7208    0.0000 C   0  0  0  0  0  0  0  0  0  0  0  0
    0.7250    4.0167    0.0000 Cl  0  0  0  0  0  0  0  0  0  0  0  0
    4.3417    1.4958    0.0000 C   0  0  0  0  0  0  0  0  0  0  0  0
    7.7667   -0.0292    0.0000 C   0  0  0  0  0  0  0  0  0  0  0  0
    8.8250    2.3458    0.0000 C   0  0  0  0  0  0  0  0  0  0  0  0
  2  1  1  0  0  0  0
  3  1  2  0  0  0  0
  4  2  2  0  0  0  0
  4  5  1  0  0  0  0
  5  3  1  0  0  0  0
  6  7  1  0  0  0  0
  7  8  1  0  0  0  0
  8  3  1  0  0  0  0
  9  2  1  0  0  0  0
 10 11  2  0  0  0  0
 11 12  1  0  0  0  0
 12 13  1  0  0  0  0
 13  6  1  0  0  0  0
 14  6  2  0  0  0  0
 15 10  1  0  0  0  0
 15 19  2  0  0  0  0
 16  9  1  0  0  0  0
 17  9  2  0  0  0  0
 18 11  1  0  0  0  0
 19 21  1  0  0  0  0
 20 23  2  0  0  0  0
 21 18  2  0  0  0  0
 22 16  2  0  0  0  0
 22 20  1  0  0  0  0
 23 17  1  0  0  0  0
 24 20  1  0  0  0  0
 25  7  1  0  0  0  0
 26 10  1  0  0  0  0
 27 19  1  0  0  0  0
M  END
>  <ID>
9083757

>  <Supplier>
ChemBridge

>  <clogP>
4.121000000000000e+000

>  <RB>
6

>  <tPSA>
6.845999999999998e+001

>  <Hacc>
5

>  <Hdon>
0

>  <LogSw>
-5.532000000000000e+000

>  <Group>
2

>  <Core>
204

$$$$
5547689
 OpenBabel03312015312D

 27 30  0  0  0  0  0  0  0  0999 V2000
   -2.5125   -0.4500    0.0000 N   0  0  0  0  0  0  0  0  0  0  0  0
   -1.7958   -0.0667    0.0000 C   0  0  0  0  0  0  0  0  0  0  0  0
   -2.3958   -1.2042    0.0000 C   0  0  0  0  0  0  0  0  0  0  0  0
   -1.2333   -0.6500    0.0000 C   0  0  3  0  0  0  0  0  0  0  0  0
   -1.5958   -1.3500    0.0000 C   0  0  0  0  0  0  0  0  0  0  0  0
   -0.3958   -0.6500    0.0000 N   0  0  0  0  0  0  0  0  0  0  0  0
    1.0042    0.1958    0.0000 N   0  0  0  0  0  0  0  0  0  0  0  0
   -3.2125   -0.0042    0.0000 C   0  0  0  0  0  0  0  0  0  0  0  0
    1.7000    0.6208    0.0000 C   0  0  0  0  0  0  0  0  0  0  0  0
   -1.6708    0.7500    0.0000 O   0  0  0  0  0  0  0  0  0  0  0  0
    1.6792    1.4458    0.0000 C   0  0  0  0  0  0  0  0  0  0  0  0
   -3.0125   -1.7667    0.0000 O   0  0  0  0  0  0  0  0  0  0  0  0
    0.3042   -1.0500    0.0000 C   0  0  0  0  0  0  0  0  0  0  0  0
   -0.3958    0.1958    0.0000 C   0  0  0  0  0  0  0  0  0  0  0  0
    1.0042   -0.6500    0.0000 C   0  0  0  0  0  0  0  0  0  0  0  0
    0.3042    0.5958    0.0000 C   0  0  0  0  0  0  0  0  0  0  0  0
   -3.9333   -0.4042    0.0000 C   0  0  0  0  0  0  0  0  0  0  0  0
   -3.1958    0.8125    0.0000 C   0  0  0  0  0  0  0  0  0  0  0  0
    2.3792    1.8833    0.0000 C   0  0  0  0  0  0  0  0  0  0  0  0
   -4.6125    0.8333    0.0000 C   0  0  0  0  0  0  0  0  0  0  0  0
   -4.6333    0.0125    0.0000 C   0  0  0  0  0  0  0  0  0  0  0  0
   -3.8958    1.2333    0.0000 C   0  0  0  0  0  0  0  0  0  0  0  0
    2.3542    2.6958    0.0000 Cl  0  0  0  0  0  0  0  0  0  0  0  0
   -5.3125    1.2500    0.0000 Br  0  0  0  0  0  0  0  0  0  0  0  0
    2.4167    0.2458    0.0000 C   0  0  0  0  0  0  0  0  0  0  0  0
    3.1167    0.6625    0.0000 C   0  0  0  0  0  0  0  0  0  0  0  0
    3.1042    1.5000    0.0000 C   0  0  0  0  0  0  0  0  0  0  0  0
  2  1  1  0  0  0  0
  3  1  1  0  0  0  0
  4  2  1  0  0  0  0
  4  5  1  0  0  0  0
  5  3  1  0  0  0  0
  6  4  1  0  0  0  0
  7 16  1  0  0  0  0
  8  1  1  0  0  0  0
  9  7  1  0  0  0  0
 10  2  2  0  0  0  0
 11  9  1  0  0  0  0
 12  3  2  0  0  0  0
 13  6  1  0  0  0  0
 14  6  1  0  0  0  0
 15 13  1  0  0  0  0
 15  7  1  0  0  0  0
 16 14  1  0  0  0  0
 17  8  1  0  0  0  0
 18  8  2  0  0  0  0
 19 11  2  0  0  0  0
 19 27  1  0  0  0  0
 20 22  2  0  0  0  0
 20 21  1  0  0  0  0
 21 17  2  0  0  0  0
 22 18  1  0  0  0  0
 23 19  1  0  0  0  0
 24 20  1  0  0  0  0
 25  9  2  0  0  0  0
 26 25  1  0  0  0  0
 27 26  2  0  0  0  0
M  END
>  <ID>
5547689

>  <Supplier>
ChemBridge

>  <clogP>
4.440000000000000e+000

>  <RB>
3

>  <tPSA>
4.386000000000000e+001

>  <Hacc>
3

>  <Hdon>
0

>  <LogSw>
-6.263000000000000e+000

>  <Group>
1

>  <Core>
558

$$$$
7785407
 OpenBabel03312015312D

 31 34  0  0  0  0  0  0  0  0999 V2000
    7.0750   -2.3042    0.0000 C   0  0  0  0  0  0  0  0  0  0  0  0
    7.0750   -1.4792    0.0000 C   0  0  0  0  0  0  0  0  0  0  0  0
    6.3542   -2.7167    0.0000 C   0  0  0  0  0  0  0  0  0  0  0  0
    6.3542   -1.0667    0.0000 O   0  0  0  0  0  0  0  0  0  0  0  0
    5.6417   -1.4792    0.0000 C   0  0  0  0  0  0  0  0  0  0  0  0
    5.6417   -2.3042    0.0000 C   0  0  0  0  0  0  0  0  0  0  0  0
    4.9292   -1.0667    0.0000 C   0  0  0  0  0  0  0  0  0  0  0  0
    7.7917   -2.7292    0.0000 C   0  0  0  0  0  0  0  0  0  0  0  0
    4.9292   -2.7167    0.0000 C   0  0  0  0  0  0  0  0  0  0  0  0
    8.5042   -3.9667    0.0000 C   0  0  0  0  0  0  0  0  0  0  0  0
    7.7917   -1.0667    0.0000 O   0  0  0  0  0  0  0  0  0  0  0  0
    2.0542   -0.2542    0.0000 C   0  0  0  0  0  0  0  0  0  0  0  0
    2.0625   -1.0792    0.0000 C   0  0  0  0  0  0  0  0  0  0  0  0
    8.5042   -4.8000    0.0000 O   0  0  0  0  0  0  0  0  0  0  0  0
    2.7792   -1.4875    0.0000 C   0  0  0  0  0  0  0  0  0  0  0  0
    4.2167   -1.4875    0.0000 C   0  0  0  0  0  0  0  0  0  0  0  0
    3.4917   -1.0667    0.0000 O   0  0  0  0  0  0  0  0  0  0  0  0
    7.7917   -3.5542    0.0000 C   0  0  0  0  0  0  0  0  0  0  0  0
    1.3417    0.1583    0.0000 C   0  0  0  0  0  0  0  0  0  0  0  0
    4.2167   -2.3042    0.0000 C   0  0  0  0  0  0  0  0  0  0  0  0
    6.3542   -3.5417    0.0000 C   0  0  0  0  0  0  0  0  0  0  0  0
    9.2167   -3.5542    0.0000 O   0  0  0  0  0  0  0  0  0  0  0  0
    0.6250   -1.0917    0.0000 C   0  0  0  0  0  0  0  0  0  0  0  0
    1.3417   -1.5000    0.0000 C   0  0  0  0  0  0  0  0  0  0  0  0
    2.7625    0.1583    0.0000 C   0  0  0  0  0  0  0  0  0  0  0  0
    0.6167   -0.2625    0.0000 C   0  0  0  0  0  0  0  0  0  0  0  0
    1.3417    0.9708    0.0000 C   0  0  0  0  0  0  0  0  0  0  0  0
    9.2167   -2.7292    0.0000 C   0  0  0  0  0  0  0  0  0  0  0  0
    9.9292   -2.3167    0.0000 C   0  0  0  0  0  0  0  0  0  0  0  0
    2.7625    0.9750    0.0000 C   0  0  0  0  0  0  0  0  0  0  0  0
    2.0500    1.3833    0.0000 C   0  0  0  0  0  0  0  0  0  0  0  0
  2  1  1  0  0  0  0
  3  1  2  0  0  0  0
  4  2  1  0  0  0  0
  5  6  1  0  0  0  0
  5  4  1  0  0  0  0
  6  3  1  0  0  0  0
  7  5  2  0  0  0  0
  7 16  1  0  0  0  0
  8  1  1  0  0  0  0
  9  6  2  0  0  0  0
 10 18  1  0  0  0  0
 11  2  2  0  0  0  0
 12 13  2  0  0  0  0
 13 15  1  0  0  0  0
 14 10  2  0  0  0  0
 15 17  1  0  0  0  0
 16 20  2  0  0  0  0
 17 16  1  0  0  0  0
 18  8  1  0  0  0  0
 19 12  1  0  0  0  0
 20  9  1  0  0  0  0
 21  3  1  0  0  0  0
 22 10  1  0  0  0  0
 23 24  2  0  0  0  0
 24 13  1  0  0  0  0
 25 12  1  0  0  0  0
 26 23  1  0  0  0  0
 26 19  2  0  0  0  0
 27 19  1  0  0  0  0
 27 31  2  0  0  0  0
 28 22  1  0  0  0  0
 29 28  1  0  0  0  0
 30 25  2  0  0  0  0
 31 30  1  0  0  0  0
M  END
>  <ID>
7785407

>  <Supplier>
ChemBridge

>  <clogP>
5.800000000000000e+000

>  <RB>
6

>  <tPSA>
6.574000000000000e+001

>  <Hacc>
5

>  <Hdon>
0

>  <LogSw>
-7.189000000000000e+000

>  <Group>
1

>  <Core>
075

$$$$
7965584
 OpenBabel03312015312D

 24 26  0  0  0  0  0  0  0  0999 V2000
    2.9292    2.8458    0.0000 C   0  0  0  0  0  0  0  0  0  0  0  0
    3.0042    3.5875    0.0000 N   0  0  0  0  0  0  0  0  0  0  0  0
    3.6125    2.5375    0.0000 N   0  0  0  0  0  0  0  0  0  0  0  0
    4.1167    3.0958    0.0000 C   0  0  0  0  0  0  0  0  0  0  0  0
    3.7417    3.7458    0.0000 C   0  0  0  0  0  0  0  0  0  0  0  0
    4.8667    3.0958    0.0000 C   0  0  0  0  0  0  0  0  0  0  0  0
    4.1167    4.3917    0.0000 C   0  0  0  0  0  0  0  0  0  0  0  0
    5.2417    3.7458    0.0000 C   0  0  0  0  0  0  0  0  0  0  0  0
    6.3667    3.0958    0.0000 C   0  0  0  0  0  0  0  0  0  0  0  0
    5.9917    3.7458    0.0000 N   0  0  0  0  0  0  0  0  0  0  0  0
    4.8667    4.3917    0.0000 C   0  0  0  0  0  0  0  0  0  0  0  0
    2.2792    2.4708    0.0000 O   0  0  0  0  0  0  0  0  0  0  0  0
    5.9917    2.4458    0.0000 O   0  0  0  0  0  0  0  0  0  0  0  0
    7.1167    3.0958    0.0000 C   0  0  0  0  0  0  0  0  0  0  0  0
    8.6167    3.0958    0.0000 N   0  0  0  0  0  0  0  0  0  0  0  0
    2.4417    4.0875    0.0000 C   0  0  0  0  0  0  0  0  0  0  0  0
    3.7667    1.8083    0.0000 C   0  0  0  0  0  0  0  0  0  0  0  0
    5.2417    5.0292    0.0000 Br  0  0  0  0  0  0  0  0  0  0  0  0
    8.2417    3.7458    0.0000 C   0  0  0  0  0  0  0  0  0  0  0  0
    8.2417    2.4458    0.0000 C   0  0  0  0  0  0  0  0  0  0  0  0
    7.4917    3.7458    0.0000 C   0  0  0  0  0  0  0  0  0  0  0  0
    7.4917    2.4458    0.0000 C   0  0  0  0  0  0  0  0  0  0  0  0
    4.4792    1.5708    0.0000 C   0  0  0  0  0  0  0  0  0  0  0  0
    2.6042    4.8167    0.0000 C   0  0  0  0  0  0  0  0  0  0  0  0
  2  1  1  0  0  0  0
  3  1  1  0  0  0  0
  4  3  1  0  0  0  0
  4  5  2  0  0  0  0
  5  2  1  0  0  0  0
  6  4  1  0  0  0  0
  7  5  1  0  0  0  0
  8  6  2  0  0  0  0
  8 11  1  0  0  0  0
  9 10  1  0  0  0  0
 10  8  1  0  0  0  0
 11  7  2  0  0  0  0
 12  1  2  0  0  0  0
 13  9  2  0  0  0  0
 14  9  1  0  0  0  0
 15 20  2  0  0  0  0
 16  2  1  0  0  0  0
 17  3  1  0  0  0  0
 18 11  1  0  0  0  0
 19 21  2  0  0  0  0
 19 15  1  0  0  0  0
 20 22  1  0  0  0  0
 21 14  1  0  0  0  0
 22 14  2  0  0  0  0
 23 17  1  0  0  0  0
 24 16  1  0  0  0  0
M  END
>  <ID>
7965584

>  <Supplier>
ChemBridge

>  <clogP>
2.384000000000000e+000

>  <RB>
2

>  <tPSA>
6.891999999999999e+001

>  <Hacc>
3

>  <Hdon>
1

>  <LogSw>
-4.074000000000000e+000

>  <Group>
3

$$$$
6211984
 OpenBabel03312015312D

 30 32  0  0  0  0  0  0  0  0999 V2000
    5.0125   -3.2667    0.0000 N   0  0  0  0  0  0  0  0  0  0  0  0
    4.7792   -3.9792    0.0000 C   0  0  0  0  0  0  0  0  0  0  0  0
    5.7667   -3.2625    0.0000 C   0  0  0  0  0  0  0  0  0  0  0  0
    6.0000   -3.9792    0.0000 C   0  0  0  0  0  0  0  0  0  0  0  0
    5.3917   -4.4250    0.0000 S   0  0  0  0  0  0  0  0  0  0  0  0
    6.7167   -4.2125    0.0000 C   0  0  0  0  0  0  0  0  0  0  0  0
    4.0667   -4.2167    0.0000 S   0  0  0  0  0  0  0  0  0  0  0  0
    6.2042   -2.6542    0.0000 O   0  0  0  0  0  0  0  0  0  0  0  0
    5.8917    2.9208    0.0000 C   0  0  0  0  0  0  0  0  0  0  0  0
    7.2792   -3.7125    0.0000 C   0  0  0  0  0  0  0  0  0  0  0  0
    5.3292    2.4208    0.0000 C   0  0  0  0  0  0  0  0  0  0  0  0
    6.6042    2.6833    0.0000 C   0  0  0  0  0  0  0  0  0  0  0  0
    4.5667   -2.6542    0.0000 C   0  0  0  0  0  0  0  0  0  0  0  0
    5.4875    1.6833    0.0000 C   0  0  0  0  0  0  0  0  0  0  0  0
    6.7542    1.9583    0.0000 C   0  0  0  0  0  0  0  0  0  0  0  0
    7.1167   -2.9750    0.0000 C   0  0  0  0  0  0  0  0  0  0  0  0
    6.2042    1.4458    0.0000 C   0  0  0  0  0  0  0  0  0  0  0  0
    7.6875   -2.4667    0.0000 C   0  0  0  0  0  0  0  0  0  0  0  0
    7.4667    1.7208    0.0000 O   0  0  0  0  0  0  0  0  0  0  0  0
    7.5292   -1.7292    0.0000 O   0  0  0  0  0  0  0  0  0  0  0  0
    8.5542   -3.4417    0.0000 C   0  0  0  0  0  0  0  0  0  0  0  0
    8.4917    0.0083    0.0000 O   0  0  0  0  0  0  0  0  0  0  0  0
    5.7375    3.6583    0.0000 C   0  0  0  0  0  0  0  0  0  0  0  0
    7.9917   -3.9417    0.0000 C   0  0  0  0  0  0  0  0  0  0  0  0
    4.6125    2.6583    0.0000 C   0  0  0  0  0  0  0  0  0  0  0  0
    8.4000   -2.7042    0.0000 C   0  0  0  0  0  0  0  0  0  0  0  0
    8.0917   -1.2292    0.0000 C   0  0  0  0  0  0  0  0  0  0  0  0
    7.6250    0.9833    0.0000 C   0  0  0  0  0  0  0  0  0  0  0  0
    8.3417    0.7458    0.0000 C   0  0  0  0  0  0  0  0  0  0  0  0
    7.9375   -0.4917    0.0000 C   0  0  0  0  0  0  0  0  0  0  0  0
  2  1  1  0  0  0  0
  3  1  1  0  0  0  0
  4  3  1  0  0  0  0
  5  2  1  0  0  0  0
  5  4  1  0  0  0  0
  6  4  2  0  0  0  0
  7  2  2  0  0  0  0
  8  3  2  0  0  0  0
  9 12  1  0  0  0  0
 10  6  1  0  0  0  0
 11 14  1  0  0  0  0
 11  9  2  0  0  0  0
 12 15  2  0  0  0  0
 13  1  1  0  0  0  0
 14 17  2  0  0  0  0
 15 19  1  0  0  0  0
 16 10  2  0  0  0  0
 17 15  1  0  0  0  0
 18 16  1  0  0  0  0
 19 28  1  0  0  0  0
 20 18  1  0  0  0  0
 21 24  2  0  0  0  0
 22 30  1  0  0  0  0
 23  9  1  0  0  0  0
 24 10  1  0  0  0  0
 25 11  1  0  0  0  0
 26 21  1  0  0  0  0
 26 18  2  0  0  0  0
 27 20  1  0  0  0  0
 28 29  1  0  0  0  0
 29 22  1  0  0  0  0
 30 27  1  0  0  0  0
M  END
>  <ID>
6211984

>  <Supplier>
ChemBridge

>  <clogP>
4.750000000000000e+000

>  <RB>
9

>  <tPSA>
4.800000000000000e+001

>  <Hacc>
4

>  <Hdon>
0

>  <LogSw>
-6.490000000000000e+000

>  <Group>
1

>  <Core>
001

$$$$
6211986
 OpenBabel03312015312D

 20 21  0  0  0  0  0  0  0  0999 V2000
    8.0042   -3.1542    0.0000 N   0  0  0  0  0  0  0  0  0  0  0  0
    7.2917   -3.5667    0.0000 C   0  0  0  0  0  0  0  0  0  0  0  0
    8.7167   -3.5625    0.0000 C   0  0  0  0  0  0  0  0  0  0  0  0
    6.5792   -3.1542    0.0000 C   0  0  0  0  0  0  0  0  0  0  0  0
    9.4250   -3.1500    0.0000 C   0  0  0  0  0  0  0  0  0  0  0  0
    7.2917   -4.3917    0.0000 O   0  0  0  0  0  0  0  0  0  0  0  0
    5.1542   -3.1542    0.0000 S   0  0  0  0  0  0  0  0  0  0  0  0
    4.4375   -3.5667    0.0000 C   0  0  0  0  0  0  0  0  0  0  0  0
    5.8667   -3.5667    0.0000 C   0  0  0  0  0  0  0  0  0  0  0  0
    3.0042   -4.3792    0.0000 C   0  0  0  0  0  0  0  0  0  0  0  0
    9.4292   -2.3250    0.0000 Br  0  0  0  0  0  0  0  0  0  0  0  0
    2.2875   -4.7875    0.0000 Cl  0  0  0  0  0  0  0  0  0  0  0  0
    3.7167   -3.1417    0.0000 C   0  0  0  0  0  0  0  0  0  0  0  0
    4.4375   -4.3792    0.0000 C   0  0  0  0  0  0  0  0  0  0  0  0
    3.0042   -3.5542    0.0000 C   0  0  0  0  0  0  0  0  0  0  0  0
    3.7167   -4.7917    0.0000 C   0  0  0  0  0  0  0  0  0  0  0  0
    8.7125   -4.3792    0.0000 C   0  0  0  0  0  0  0  0  0  0  0  0
   10.1375   -3.5667    0.0000 C   0  0  0  0  0  0  0  0  0  0  0  0
    9.4250   -4.7917    0.0000 C   0  0  0  0  0  0  0  0  0  0  0  0
   10.1292   -4.3792    0.0000 C   0  0  0  0  0  0  0  0  0  0  0  0
  2  1  1  0  0  0  0
  3  1  1  0  0  0  0
  4  2  1  0  0  0  0
  5  3  1  0  0  0  0
  6  2  2  0  0  0  0
  7  9  1  0  0  0  0
  8  7  1  0  0  0  0
  9  4  1  0  0  0  0
 10 16  1  0  0  0  0
 11  5  1  0  0  0  0
 12 10  1  0  0  0  0
 13  8  2  0  0  0  0
 14  8  1  0  0  0  0
 15 13  1  0  0  0  0
 15 10  2  0  0  0  0
 16 14  2  0  0  0  0
 17  3  2  0  0  0  0
 18  5  2  0  0  0  0
 18 20  1  0  0  0  0
 19 17  1  0  0  0  0
 20 19  2  0  0  0  0
M  END
>  <ID>
6211986

>  <Supplier>
ChemBridge

>  <clogP>
4.520000000000000e+000

>  <RB>
5

>  <tPSA>
2.910000000000000e+001

>  <Hacc>
1

>  <Hdon>
1

>  <LogSw>
-5.763000000000000e+000

>  <Group>
3

>  <Core>
520

$$$$
7006766
 OpenBabel03312015312D

 22 23  0  0  0  0  0  0  0  0999 V2000
    2.9292   -1.9292    0.0000 N   0  0  0  0  0  0  0  0  0  0  0  0
    2.2167   -1.5167    0.0000 C   0  0  0  0  0  0  0  0  0  0  0  0
    3.6417   -1.5167    0.0000 C   0  0  0  0  0  0  0  0  0  0  0  0
   -1.3625   -3.5750    0.0000 C   0  0  0  0  0  0  0  0  0  0  0  0
    1.5042   -1.9292    0.0000 N   0  0  0  0  0  0  0  0  0  0  0  0
    2.2167   -0.6917    0.0000 S   0  0  0  0  0  0  0  0  0  0  0  0
    4.3542   -1.9292    0.0000 C   0  0  0  0  0  0  0  0  0  0  0  0
   -0.6458   -3.1625    0.0000 C   0  0  0  0  0  0  0  0  0  0  0  0
    3.6417   -0.6917    0.0000 O   0  0  0  0  0  0  0  0  0  0  0  0
   -2.0750   -3.1625    0.0000 O   0  0  0  0  0  0  0  0  0  0  0  0
    5.0792   -1.5167    0.0000 C   0  0  0  0  0  0  0  0  0  0  0  0
    4.3542   -2.7625    0.0000 C   0  0  0  0  0  0  0  0  0  0  0  0
    0.0667   -3.5750    0.0000 C   0  0  0  0  0  0  0  0  0  0  0  0
   -0.6458   -2.3292    0.0000 C   0  0  0  0  0  0  0  0  0  0  0  0
    0.7875   -2.3417    0.0000 C   0  0  0  0  0  0  0  0  0  0  0  0
   -1.3625   -4.4000    0.0000 O   0  0  0  0  0  0  0  0  0  0  0  0
    5.7917   -2.7542    0.0000 C   0  0  0  0  0  0  0  0  0  0  0  0
    0.7792   -3.1667    0.0000 C   0  0  0  0  0  0  0  0  0  0  0  0
    0.0667   -1.9250    0.0000 C   0  0  0  0  0  0  0  0  0  0  0  0
    5.7917   -1.9292    0.0000 C   0  0  0  0  0  0  0  0  0  0  0  0
    5.0792   -3.1667    0.0000 C   0  0  0  0  0  0  0  0  0  0  0  0
    6.5125   -3.1667    0.0000 Cl  0  0  0  0  0  0  0  0  0  0  0  0
  2  1  1  0  0  0  0
  3  1  1  0  0  0  0
  4  8  1  0  0  0  0
  5  2  1  0  0  0  0
  6  2  2  0  0  0  0
  7  3  1  0  0  0  0
  8 14  1  0  0  0  0
  8 13  2  0  0  0  0
  9  3  2  0  0  0  0
 10  4  2  0  0  0  0
 11  7  2  0  0  0  0
 12  7  1  0  0  0  0
 13 18  1  0  0  0  0
 14 19  2  0  0  0  0
 15  5  1  0  0  0  0
 16  4  1  0  0  0  0
 17 21  1  0  0  0  0
 18 15  2  0  0  0  0
 19 15  1  0  0  0  0
 20 11  1  0  0  0  0
 20 17  2  0  0  0  0
 21 12  2  0  0  0  0
 22 17  1  0  0  0  0
M  END
>  <ID>
7006766

>  <Supplier>
ChemBridge

>  <clogP>
3.430000000000000e+000

>  <RB>
3

>  <tPSA>
7.843000000000001e+001

>  <Hacc>
3

>  <Hdon>
3

>  <LogSw>
-4.570000000000000e+000

>  <Group>
1

>  <Core>
071

$$$$
5623431
 OpenBabel03312015312D

 23 24  0  0  0  0  0  0  0  0999 V2000
   -1.0958    1.0458    0.0000 C   0  0  0  0  0  0  0  0  0  0  0  0
   -1.0958    1.7958    0.0000 C   0  0  0  0  0  0  0  0  0  0  0  0
   -0.4458    0.6625    0.0000 C   0  0  0  0  0  0  0  0  0  0  0  0
   -1.7458    0.6625    0.0000 C   0  0  0  0  0  0  0  0  0  0  0  0
    0.2000    1.7958    0.0000 C   0  0  0  0  0  0  0  0  0  0  0  0
    0.2000    1.0458    0.0000 C   0  0  0  0  0  0  0  0  0  0  0  0
   -2.3958    1.0333    0.0000 C   0  0  0  0  0  0  0  0  0  0  0  0
   -1.7458    2.1708    0.0000 C   0  0  0  0  0  0  0  0  0  0  0  0
   -2.4000    1.7958    0.0000 C   0  0  0  0  0  0  0  0  0  0  0  0
    0.8500    2.1708    0.0000 N   0  0  0  0  0  0  0  0  0  0  0  0
   -0.4458    2.1708    0.0000 C   0  0  0  0  0  0  0  0  0  0  0  0
    0.8500    2.9208    0.0000 C   0  0  0  0  0  0  0  0  0  0  0  0
    0.2000    3.2958    0.0000 O   0  0  0  0  0  0  0  0  0  0  0  0
   -0.4333   -0.0792    0.0000 N   0  0  0  0  0  0  0  0  0  0  0  0
   -3.0458    0.6500    0.0000 O   0  0  0  0  0  0  0  0  0  0  0  0
   -3.0500    2.1625    0.0000 O   0  0  0  0  0  0  0  0  0  0  0  0
    1.5000    3.3000    0.0000 C   0  0  0  0  0  0  0  0  0  0  0  0
    0.2000   -0.4500    0.0000 C   0  0  0  0  0  0  0  0  0  0  0  0
   -3.7000    1.7833    0.0000 C   0  0  0  0  0  0  0  0  0  0  0  0
   -3.7000    1.0333    0.0000 C   0  0  0  0  0  0  0  0  0  0  0  0
    0.8500   -0.0667    0.0000 C   0  0  0  0  0  0  0  0  0  0  0  0
    1.5000   -0.4500    0.0000 C   0  0  0  0  0  0  0  0  0  0  0  0
    2.1500   -0.0667    0.0000 C   0  0  0  0  0  0  0  0  0  0  0  0
  2  1  1  0  0  0  0
  3  1  2  0  0  0  0
  4  1  1  0  0  0  0
  5  6  2  0  0  0  0
  6  3  1  0  0  0  0
  7  4  2  0  0  0  0
  8  2  1  0  0  0  0
  8  9  2  0  0  0  0
  9  7  1  0  0  0  0
 10  5  1  0  0  0  0
 11  2  2  0  0  0  0
 11  5  1  0  0  0  0
 12 10  1  0  0  0  0
 13 12  2  0  0  0  0
 14  3  1  0  0  0  0
 15  7  1  0  0  0  0
 16  9  1  0  0  0  0
 17 12  1  0  0  0  0
 18 14  1  0  0  0  0
 19 16  1  0  0  0  0
 20 15  1  0  0  0  0
 21 18  1  0  0  0  0
 22 21  1  0  0  0  0
 23 22  1  0  0  0  0
M  END
>  <ID>
5623431

>  <Supplier>
ChemBridge

>  <clogP>
3.140000000000000e+000

>  <RB>
3

>  <tPSA>
5.959000000000000e+001

>  <Hacc>
3

>  <Hdon>
2

>  <LogSw>
-4.189000000000000e+000

>  <Group>
3

$$$$
5623436
 OpenBabel03312015312D

 22 24  0  0  0  0  0  0  0  0999 V2000
   -1.3500    0.0000    0.0000 N   0  0  0  0  0  0  0  0  0  0  0  0
   -0.6333    1.0958    0.0000 C   0  0  0  0  0  0  0  0  0  0  0  0
    0.6792   -0.5292    0.0000 C   0  0  0  0  0  0  0  0  0  0  0  0
   -0.5333   -1.0000    0.0000 C   0  0  0  0  0  0  0  0  0  0  0  0
    0.6000    0.7333    0.0000 C   0  0  0  0  0  0  0  0  0  0  0  0
   -2.6708    0.0000    0.0000 C   0  0  0  0  0  0  0  0  0  0  0  0
    1.8000   -1.2292    0.0000 N   0  0  0  0  0  0  0  0  0  0  0  0
   -1.0708    2.3125    0.0000 O   0  0  0  0  0  0  0  0  0  0  0  0
   -0.8625   -2.3000    0.0000 O   0  0  0  0  0  0  0  0  0  0  0  0
   -3.3208   -1.1292    0.0000 C   0  0  0  0  0  0  0  0  0  0  0  0
    2.9292   -0.6000    0.0000 C   0  0  0  0  0  0  0  0  0  0  0  0
   -2.6708   -2.2667    0.0000 O   0  0  0  0  0  0  0  0  0  0  0  0
   -3.3208    1.1458    0.0000 C   0  0  0  0  0  0  0  0  0  0  0  0
   -4.6125   -1.1292    0.0000 C   0  0  0  0  0  0  0  0  0  0  0  0
    2.9292    0.7000    0.0000 C   0  0  0  0  0  0  0  0  0  0  0  0
    4.0500   -1.3000    0.0000 C   0  0  0  0  0  0  0  0  0  0  0  0
   -3.4125   -3.4500    0.0000 C   0  0  0  0  0  0  0  0  0  0  0  0
   -4.6458    1.1458    0.0000 C   0  0  0  0  0  0  0  0  0  0  0  0
   -5.2708    0.0000    0.0000 C   0  0  0  0  0  0  0  0  0  0  0  0
    5.2000   -0.6292    0.0000 C   0  0  0  0  0  0  0  0  0  0  0  0
    4.1000    1.3208    0.0000 C   0  0  0  0  0  0  0  0  0  0  0  0
    5.2000    0.6625    0.0000 C   0  0  0  0  0  0  0  0  0  0  0  0
  2  1  1  0  0  0  0
  3  4  1  0  0  0  0
  4  1  1  0  0  0  0
  5  2  1  0  0  0  0
  5  3  2  0  0  0  0
  6  1  1  0  0  0  0
  7  3  1  0  0  0  0
  8  2  2  0  0  0  0
  9  4  2  0  0  0  0
 10  6  2  0  0  0  0
 11  7  1  0  0  0  0
 12 10  1  0  0  0  0
 13  6  1  0  0  0  0
 14 10  1  0  0  0  0
 15 11  2  0  0  0  0
 16 11  1  0  0  0  0
 17 12  1  0  0  0  0
 18 13  2  0  0  0  0
 19 18  1  0  0  0  0
 19 14  2  0  0  0  0
 20 16  2  0  0  0  0
 21 15  1  0  0  0  0
 22 20  1  0  0  0  0
 22 21  2  0  0  0  0
M  END
>  <ID>
5623436

>  <Supplier>
ChemBridge

>  <clogP>
3.050000000000000e+000

>  <RB>
3

>  <tPSA>
5.863999999999998e+001

>  <Hacc>
3

>  <Hdon>
1

>  <LogSw>
-3.951000000000000e+000

>  <Group>
2

$$$$
5623437
 OpenBabel03312015312D

 23 25  0  0  0  0  0  0  0  0999 V2000
    4.6167   -1.7167    0.0000 N   0  0  0  0  0  0  0  0  0  0  0  0
    3.8875   -1.8167    0.0000 C   0  0  0  0  0  0  0  0  0  0  0  0
    4.7542   -0.9792    0.0000 C   0  0  0  0  0  0  0  0  0  0  0  0
    3.5542   -1.1500    0.0000 N   0  0  0  0  0  0  0  0  0  0  0  0
    4.0875   -0.6292    0.0000 N   0  0  0  0  0  0  0  0  0  0  0  0
    5.1375   -2.2542    0.0000 N   0  0  0  0  0  0  0  0  0  0  0  0
    5.8667   -2.0792    0.0000 C   0  0  0  0  0  0  0  0  0  0  0  0
    3.5375   -2.4792    0.0000 C   0  0  0  0  0  0  0  0  0  0  0  0
    7.1167   -2.4375    0.0000 C   0  0  0  0  0  0  0  0  0  0  0  0
    6.3875   -2.6167    0.0000 C   0  0  0  0  0  0  0  0  0  0  0  0
    5.4292   -0.6500    0.0000 S   0  0  0  0  0  0  0  0  0  0  0  0
    7.6375   -2.9792    0.0000 C   0  0  0  0  0  0  0  0  0  0  0  0
    6.1875   -3.3375    0.0000 C   0  0  0  0  0  0  0  0  0  0  0  0
    2.7875   -2.5042    0.0000 C   0  0  0  0  0  0  0  0  0  0  0  0
    3.9375   -3.1167    0.0000 C   0  0  0  0  0  0  0  0  0  0  0  0
    7.4292   -3.7000    0.0000 C   0  0  0  0  0  0  0  0  0  0  0  0
    8.3667   -2.7875    0.0000 C   0  0  0  0  0  0  0  0  0  0  0  0
    3.5875   -3.7792    0.0000 C   0  0  0  0  0  0  0  0  0  0  0  0
    2.4375   -3.1792    0.0000 C   0  0  0  0  0  0  0  0  0  0  0  0
    8.8875   -3.3292    0.0000 C   0  0  0  0  0  0  0  0  0  0  0  0
    7.9500   -4.2375    0.0000 C   0  0  0  0  0  0  0  0  0  0  0  0
    2.8375   -3.8042    0.0000 C   0  0  0  0  0  0  0  0  0  0  0  0
    8.6792   -4.0542    0.0000 C   0  0  0  0  0  0  0  0  0  0  0  0
  2  1  1  0  0  0  0
  3  1  1  0  0  0  0
  4  2  2  0  0  0  0
  4  5  1  0  0  0  0
  5  3  2  0  0  0  0
  6  1  1  0  0  0  0
  7  6  2  0  0  0  0
  8  2  1  0  0  0  0
  9 10  2  0  0  0  0
 10  7  1  0  0  0  0
 11  3  1  0  0  0  0
 12  9  1  0  0  0  0
 13 10  1  0  0  0  0
 14  8  1  0  0  0  0
 15  8  2  0  0  0  0
 16 12  1  0  0  0  0
 17 12  2  0  0  0  0
 18 15  1  0  0  0  0
 19 14  2  0  0  0  0
 19 22  1  0  0  0  0
 20 17  1  0  0  0  0
 21 16  2  0  0  0  0
 21 23  1  0  0  0  0
 22 18  2  0  0  0  0
 23 20  2  0  0  0  0
M  END
>  <ID>
5623437

>  <Supplier>
ChemBridge

>  <clogP>
4.520000000000000e+000

>  <RB>
4

>  <tPSA>
4.306999999999999e+001

>  <Hacc>
4

>  <Hdon>
0

>  <LogSw>
-5.396999999999999e+000

>  <Group>
2

>  <Core>
292

$$$$
9025193
 OpenBabel03312015312D

 25 26  0  0  0  0  0  0  0  0999 V2000
    3.6292    2.9708    0.0000 S   0  0  0  0  0  0  0  0  0  0  0  0
    4.2792    2.5958    0.0000 C   0  0  0  0  0  0  0  0  0  0  0  0
    4.2792    1.8458    0.0000 C   0  0  0  0  0  0  0  0  0  0  0  0
    3.1000    2.4458    0.0000 N   0  0  0  0  0  0  0  0  0  0  0  0
    4.9292    2.9708    0.0000 C   0  0  0  0  0  0  0  0  0  0  0  0
    0.9250    3.0250    0.0000 N   0  0  0  0  0  0  0  0  0  0  0  0
    1.1167    2.3000    0.0000 C   0  0  0  0  0  0  0  0  0  0  0  0
    1.4542    3.5583    0.0000 C   0  0  0  0  0  0  0  0  0  0  0  0
    4.9292    1.4708    0.0000 C   0  0  0  0  0  0  0  0  0  0  0  0
    2.3750    2.6458    0.0000 C   0  0  0  0  0  0  0  0  0  0  0  0
    4.0542    3.5875    0.0000 O   0  0  0  0  0  0  0  0  0  0  0  0
    3.0542    3.4583    0.0000 O   0  0  0  0  0  0  0  0  0  0  0  0
    5.5792    2.5958    0.0000 C   0  0  0  0  0  0  0  0  0  0  0  0
    5.5792    1.8458    0.0000 C   0  0  0  0  0  0  0  0  0  0  0  0
    1.8417    2.1083    0.0000 C   0  0  0  0  0  0  0  0  0  0  0  0
    2.1792    3.3625    0.0000 C   0  0  0  0  0  0  0  0  0  0  0  0
    4.9292    3.7208    0.0000 O   0  0  0  0  0  0  0  0  0  0  0  0
    4.9292    0.7208    0.0000 O   0  0  0  0  0  0  0  0  0  0  0  0
    1.7667    4.2292    0.0000 C   0  0  0  0  0  0  0  0  0  0  0  0
    0.8417    3.9833    0.0000 C   0  0  0  0  0  0  0  0  0  0  0  0
    0.3667    2.2333    0.0000 C   0  0  0  0  0  0  0  0  0  0  0  0
    1.0542    1.5583    0.0000 C   0  0  0  0  0  0  0  0  0  0  0  0
    6.2292    1.4708    0.0000 C   0  0  0  0  0  0  0  0  0  0  0  0
    5.5792    4.0917    0.0000 C   0  0  0  0  0  0  0  0  0  0  0  0
    4.2792    0.3458    0.0000 C   0  0  0  0  0  0  0  0  0  0  0  0
  2  1  1  0  0  0  0
  3  2  1  0  0  0  0
  4  1  1  0  0  0  0
  5  2  2  0  0  0  0
  6  8  1  0  0  0  0
  7 15  1  0  0  0  0
  7  6  1  0  0  0  0
  8 16  1  0  0  0  0
  9  3  2  0  0  0  0
  9 14  1  0  0  0  0
 10  4  1  0  0  0  0
 11  1  2  0  0  0  0
 12  1  2  0  0  0  0
 13  5  1  0  0  0  0
 14 13  2  0  0  0  0
 15 10  1  0  0  0  0
 16 10  1  0  0  0  0
 17  5  1  0  0  0  0
 18  9  1  0  0  0  0
 19  8  1  0  0  0  0
 20  8  1  0  0  0  0
 21  7  1  0  0  0  0
 22  7  1  0  0  0  0
 23 14  1  0  0  0  0
 24 17  1  0  0  0  0
 25 18  1  0  0  0  0
M  END
>  <ID>
9025193

>  <Supplier>
ChemBridge

>  <clogP>
2.959000000000000e+000

>  <RB>
2

>  <tPSA>
7.666000000000000e+001

>  <Hacc>
6

>  <Hdon>
2

>  <LogSw>
-3.420000000000000e+000

>  <Group>
2

$$$$
7737159
 OpenBabel03312015312D

 24 26  0  0  0  0  0  0  0  0999 V2000
    3.5250   -1.2250    0.0000 N   0  0  0  0  0  0  0  0  0  0  0  0
    3.9375   -2.4917    0.0000 C   0  0  0  0  0  0  0  0  0  0  0  0
    2.8625   -1.7042    0.0000 C   0  0  0  0  0  0  0  0  0  0  0  0
    4.1917   -1.7042    0.0000 C   0  0  0  0  0  0  0  0  0  0  0  0
    3.1125   -2.4917    0.0000 C   0  0  0  0  0  0  0  0  0  0  0  0
    4.4250   -3.1625    0.0000 C   0  0  0  0  0  0  0  0  0  0  0  0
    4.0875   -3.9167    0.0000 C   0  0  0  0  0  0  0  0  0  0  0  0
    3.5250   -0.4000    0.0000 C   0  0  0  0  0  0  0  0  0  0  0  0
    4.5667   -4.5750    0.0000 C   0  0  0  0  0  0  0  0  0  0  0  0
    5.0542   -5.2417    0.0000 N   0  0  0  0  0  0  0  0  0  0  0  0
    3.2667   -3.9917    0.0000 C   0  0  0  0  0  0  0  0  0  0  0  0
    2.8125    0.0125    0.0000 N   0  0  0  0  0  0  0  0  0  0  0  0
    2.9292   -4.7542    0.0000 C   0  0  0  0  0  0  0  0  0  0  0  0
    2.1042   -4.8375    0.0000 C   0  0  0  0  0  0  0  0  0  0  0  0
    2.0792   -1.4542    0.0000 C   0  0  0  0  0  0  0  0  0  0  0  0
    4.9792   -1.4542    0.0000 C   0  0  0  0  0  0  0  0  0  0  0  0
    1.7625   -5.5917    0.0000 Br  0  0  0  0  0  0  0  0  0  0  0  0
    2.7792   -3.3292    0.0000 C   0  0  0  0  0  0  0  0  0  0  0  0
    4.2417    0.0208    0.0000 C   0  0  0  0  0  0  0  0  0  0  0  0
    1.9542   -3.4042    0.0000 C   0  0  0  0  0  0  0  0  0  0  0  0
    2.8042    0.8333    0.0000 C   0  0  0  0  0  0  0  0  0  0  0  0
    1.6167   -4.1667    0.0000 C   0  0  0  0  0  0  0  0  0  0  0  0
    4.2417    0.8375    0.0000 C   0  0  0  0  0  0  0  0  0  0  0  0
    3.5250    1.2500    0.0000 C   0  0  0  0  0  0  0  0  0  0  0  0
  2  4  2  0  0  0  0
  2  5  1  0  0  0  0
  3  1  1  0  0  0  0
  4  1  1  0  0  0  0
  5  3  2  0  0  0  0
  6  2  1  0  0  0  0
  7  6  2  0  0  0  0
  8  1  1  0  0  0  0
  9  7  1  0  0  0  0
 10  9  3  0  0  0  0
 11  7  1  0  0  0  0
 12  8  1  0  0  0  0
 13 11  1  0  0  0  0
 14 13  2  0  0  0  0
 14 22  1  0  0  0  0
 15  3  1  0  0  0  0
 16  4  1  0  0  0  0
 17 14  1  0  0  0  0
 18 11  2  0  0  0  0
 19  8  2  0  0  0  0
 20 18  1  0  0  0  0
 21 12  2  0  0  0  0
 22 20  2  0  0  0  0
 23 19  1  0  0  0  0
 24 23  2  0  0  0  0
 24 21  1  0  0  0  0
M  END
>  <ID>
7737159

>  <Supplier>
ChemBridge

>  <clogP>
5.056000000000000e+000

>  <RB>
3

>  <tPSA>
4.161000000000000e+001

>  <Hacc>
3

>  <Hdon>
0

>  <LogSw>
-6.534000000000000e+000

>  <Group>
1

>  <Core>
110

$$$$
6146055
 OpenBabel03312015312D

 21 23  0  0  0  0  0  0  0  0999 V2000
    4.5000   -0.1875    0.0000 C   0  0  0  0  0  0  0  0  0  0  0  0
    5.2042    0.2208    0.0000 O   0  0  0  0  0  0  0  0  0  0  0  0
    5.9167   -0.1875    0.0000 C   0  0  0  0  0  0  0  0  0  0  0  0
    4.5000   -1.0042    0.0000 C   0  0  0  0  0  0  0  0  0  0  0  0
    5.2042   -1.4167    0.0000 C   0  0  0  0  0  0  0  0  0  0  0  0
    3.7792    0.2208    0.0000 C   0  0  0  0  0  0  0  0  0  0  0  0
    5.9167   -1.0042    0.0000 C   0  0  0  0  0  0  0  0  0  0  0  0
    3.7792   -1.4167    0.0000 C   0  0  0  0  0  0  0  0  0  0  0  0
    3.0542   -0.1875    0.0000 C   0  0  0  0  0  0  0  0  0  0  0  0
    6.6500    0.2208    0.0000 O   0  0  0  0  0  0  0  0  0  0  0  0
    2.3500    0.2208    0.0000 O   0  0  0  0  0  0  0  0  0  0  0  0
    3.0542   -1.0042    0.0000 C   0  0  0  0  0  0  0  0  0  0  0  0
    0.9000    1.0458    0.0000 O   0  0  0  0  0  0  0  0  0  0  0  0
    0.9042    0.2125    0.0000 C   0  0  0  0  0  0  0  0  0  0  0  0
    1.6292   -0.1875    0.0000 C   0  0  0  0  0  0  0  0  0  0  0  0
    3.7792    1.0458    0.0000 C   0  0  0  0  0  0  0  0  0  0  0  0
    5.2042   -2.2500    0.0000 C   0  0  0  0  0  0  0  0  0  0  0  0
    6.6375   -1.4167    0.0000 C   0  0  0  0  0  0  0  0  0  0  0  0
    0.2000   -0.2000    0.0000 C   0  0  0  0  0  0  0  0  0  0  0  0
    5.9167   -2.6542    0.0000 C   0  0  0  0  0  0  0  0  0  0  0  0
    6.6375   -2.2500    0.0000 C   0  0  0  0  0  0  0  0  0  0  0  0
  2  1  1  0  0  0  0
  3  2  1  0  0  0  0
  3  7  1  0  0  0  0
  4  1  1  0  0  0  0
  5  4  1  0  0  0  0
  6  1  2  0  0  0  0
  7  5  2  0  0  0  0
  8  4  2  0  0  0  0
  9  6  1  0  0  0  0
 10  3  2  0  0  0  0
 11  9  1  0  0  0  0
 12  9  2  0  0  0  0
 12  8  1  0  0  0  0
 13 14  2  0  0  0  0
 14 15  1  0  0  0  0
 15 11  1  0  0  0  0
 16  6  1  0  0  0  0
 17  5  1  0  0  0  0
 18  7  1  0  0  0  0
 19 14  1  0  0  0  0
 20 17  2  0  0  0  0
 21 20  1  0  0  0  0
 21 18  2  0  0  0  0
M  END
>  <ID>
6146055

>  <Supplier>
ChemBridge

>  <clogP>
2.970000000000000e+000

>  <RB>
3

>  <tPSA>
5.651000000000000e+001

>  <Hacc>
4

>  <Hdon>
0

>  <LogSw>
-4.906000000000002e+000

>  <Group>
3

>  <Core>
358

$$$$
9082351
 OpenBabel03312015312D

 22 24  0  0  0  0  0  0  0  0999 V2000
    4.2417   -3.8500    0.0000 C   0  0  0  0  0  0  0  0  0  0  0  0
    3.4167   -3.8500    0.0000 C   0  0  0  0  0  0  0  0  0  0  0  0
    4.7292   -4.5250    0.0000 O   0  0  0  0  0  0  0  0  0  0  0  0
    3.0042   -3.1292    0.0000 C   0  0  0  0  0  0  0  0  0  0  0  0
    4.7292   -3.1875    0.0000 C   0  0  0  0  0  0  0  0  0  0  0  0
    5.5167   -4.2542    0.0000 C   0  0  0  0  0  0  0  0  0  0  0  0
    5.5167   -3.4375    0.0000 C   0  0  0  0  0  0  0  0  0  0  0  0
    2.1792   -3.1292    0.0000 C   0  0  0  0  0  0  0  0  0  0  0  0
    3.0042   -4.5625    0.0000 C   0  0  0  0  0  0  0  0  0  0  0  0
    9.8625   -3.8917    0.0000 N   0  0  0  0  0  0  0  0  0  0  0  0
    1.7667   -3.8500    0.0000 C   0  0  0  0  0  0  0  0  0  0  0  0
    6.9292   -4.4125    0.0000 N   0  0  0  0  0  0  0  0  0  0  0  0
    3.4167   -2.4167    0.0000 Cl  0  0  0  0  0  0  0  0  0  0  0  0
    2.1792   -4.5625    0.0000 C   0  0  0  0  0  0  0  0  0  0  0  0
    0.9417   -3.8500    0.0000 Cl  0  0  0  0  0  0  0  0  0  0  0  0
    6.1875   -4.7542    0.0000 C   0  0  0  0  0  0  0  0  0  0  0  0
    9.2042   -3.4042    0.0000 C   0  0  0  0  0  0  0  0  0  0  0  0
    9.7792   -4.7167    0.0000 C   0  0  0  0  0  0  0  0  0  0  0  0
    7.6042   -4.9042    0.0000 C   0  0  0  0  0  0  0  0  0  0  0  0
    8.3542   -4.5625    0.0000 C   0  0  0  0  0  0  0  0  0  0  0  0
    8.4417   -3.7375    0.0000 C   0  0  0  0  0  0  0  0  0  0  0  0
    9.0250   -5.0417    0.0000 C   0  0  0  0  0  0  0  0  0  0  0  0
  2  1  1  0  0  0  0
  3  1  1  0  0  0  0
  4  2  2  0  0  0  0
  5  1  2  0  0  0  0
  6  3  1  0  0  0  0
  6  7  2  0  0  0  0
  7  5  1  0  0  0  0
  8  4  1  0  0  0  0
  9  2  1  0  0  0  0
 10 18  1  0  0  0  0
 10 17  1  0  0  0  0
 11 14  1  0  0  0  0
 11  8  2  0  0  0  0
 12 16  1  0  0  0  0
 13  4  1  0  0  0  0
 14  9  2  0  0  0  0
 15 11  1  0  0  0  0
 16  6  1  0  0  0  0
 17 21  1  0  0  0  0
 18 22  1  0  0  0  0
 19 12  1  0  0  0  0
 20 19  1  0  0  0  0
 21 20  1  0  0  0  0
 22 20  1  0  0  0  0
M  END
>  <ID>
9082351

>  <Supplier>
ChemBridge

>  <clogP>
3.120000000000000e+000

>  <RB>
5

>  <tPSA>
3.720000000000000e+001

>  <Hacc>
3

>  <Hdon>
2

>  <LogSw>
-4.706000000000000e+000

>  <Group>
2

$$$$
9062743
 OpenBabel03312015312D

 19 20  0  0  0  0  0  0  0  0999 V2000
    5.0042    2.4958    0.0000 O   0  0  0  0  0  0  0  0  0  0  0  0
    4.2917    1.5125    0.0000 N   0  0  0  0  0  0  0  0  0  0  0  0
    4.2917    2.2708    0.0000 C   0  0  0  0  0  0  0  0  0  0  0  0
    5.0042    1.2833    0.0000 N   0  0  0  0  0  0  0  0  0  0  0  0
    5.4500    1.8958    0.0000 C   0  0  0  0  0  0  0  0  0  0  0  0
    1.7042    2.5333    0.0000 C   0  0  0  0  0  0  0  0  0  0  0  0
    2.3917    2.8375    0.0000 C   0  0  0  0  0  0  0  0  0  0  0  0
    3.6875    2.7083    0.0000 S   0  0  0  0  0  0  0  0  0  0  0  0
    1.1042    2.9833    0.0000 O   0  0  0  0  0  0  0  0  0  0  0  0
    6.2000    1.8958    0.0000 C   0  0  0  0  0  0  0  0  0  0  0  0
    6.5750    1.2375    0.0000 O   0  0  0  0  0  0  0  0  0  0  0  0
    3.0000    2.3958    0.0000 C   0  0  0  0  0  0  0  0  0  0  0  0
    1.6292    1.7875    0.0000 O   0  0  0  0  0  0  0  0  0  0  0  0
    7.3250    1.2375    0.0000 C   0  0  0  0  0  0  0  0  0  0  0  0
    7.7000    0.5875    0.0000 C   0  0  0  0  0  0  0  0  0  0  0  0
    7.7000    1.8958    0.0000 C   0  0  0  0  0  0  0  0  0  0  0  0
    8.4500    1.8958    0.0000 C   0  0  0  0  0  0  0  0  0  0  0  0
    8.4500    0.5875    0.0000 C   0  0  0  0  0  0  0  0  0  0  0  0
    8.8250    1.2375    0.0000 C   0  0  0  0  0  0  0  0  0  0  0  0
  2  3  2  0  0  0  0
  3  1  1  0  0  0  0
  4  5  2  0  0  0  0
  4  2  1  0  0  0  0
  5  1  1  0  0  0  0
  6  7  1  0  0  0  0
  7 12  1  0  0  0  0
  8  3  1  0  0  0  0
  9  6  2  0  0  0  0
 10  5  1  0  0  0  0
 11 10  1  0  0  0  0
 12  8  1  0  0  0  0
 13  6  1  0  0  0  0
 14 11  1  0  0  0  0
 15 14  1  0  0  0  0
 16 14  2  0  0  0  0
 17 16  1  0  0  0  0
 18 15  2  0  0  0  0
 18 19  1  0  0  0  0
 19 17  2  0  0  0  0
M  END
>  <ID>
9062743

>  <Supplier>
ChemBridge

>  <clogP>
4.720000000000000e-001

>  <RB>
7

>  <tPSA>
8.545000000000000e+001

>  <Hacc>
6

>  <Hdon>
1

>  <LogSw>
-2.150000000000000e+000

>  <Group>
2

>  <Core>
033

$$$$
6115714
 OpenBabel03312015312D

 18 19  0  0  0  0  0  0  0  0999 V2000
    0.1667    1.4125    0.0000 C   0  0  0  0  0  0  0  0  0  0  0  0
   -1.1500    0.6333    0.0000 C   0  0  3  0  0  0  0  0  0  0  0  0
    1.4667    0.6625    0.0000 N   0  0  0  0  0  0  0  0  0  0  0  0
    2.7792    1.4125    0.0000 C   0  0  0  0  0  0  0  0  0  0  0  0
   -1.1500   -0.8875    0.0000 C   0  0  3  0  0  0  0  0  0  0  0  0
    2.7792    2.9208    0.0000 S   0  0  0  0  0  0  0  0  0  0  0  0
    5.1000    2.1958    0.0000 N   0  0  0  0  0  0  0  0  0  0  0  0
    0.1667   -1.6792    0.0000 C   0  0  0  0  0  0  0  0  0  0  0  0
    4.2167    3.3833    0.0000 C   0  0  0  0  0  0  0  0  0  0  0  0
   -2.4708   -1.6500    0.0000 C   0  0  0  0  0  0  0  0  0  0  0  0
   -3.7833    0.6125    0.0000 C   0  0  0  0  0  0  0  0  0  0  0  0
   -3.7833   -0.8792    0.0000 C   0  0  0  0  0  0  0  0  0  0  0  0
    4.2167    0.9500    0.0000 C   0  0  0  0  0  0  0  0  0  0  0  0
   -2.4708    1.3833    0.0000 C   0  0  0  0  0  0  0  0  0  0  0  0
    0.1542    2.9583    0.0000 O   0  0  0  0  0  0  0  0  0  0  0  0
    0.1667   -3.1167    0.0000 O   0  0  0  0  0  0  0  0  0  0  0  0
   -5.1208    1.3500    0.0000 Cl  0  0  0  0  0  0  0  0  0  0  0  0
    1.4792   -0.9042    0.0000 O   0  0  0  0  0  0  0  0  0  0  0  0
  2  1  1  0  0  0  0
  3  1  1  0  0  0  0
  4  3  1  0  0  0  0
  5  2  1  0  0  0  0
  6  4  1  0  0  0  0
  7 13  1  0  0  0  0
  7  9  2  0  0  0  0
  8  5  1  0  0  0  0
  9  6  1  0  0  0  0
 10  5  1  0  0  0  0
 10 12  1  0  0  0  0
 11 14  1  0  0  0  0
 12 11  2  0  0  0  0
 13  4  2  0  0  0  0
 14  2  1  0  0  0  0
 15  1  2  0  0  0  0
 16  8  2  0  0  0  0
 17 11  1  0  0  0  0
 18  8  1  0  0  0  0
M  END
>  <ID>
6115714

>  <Supplier>
ChemBridge

>  <clogP>
1.610000000000000e+000

>  <RB>
3

>  <tPSA>
7.929000000000001e+001

>  <Hacc>
4

>  <Hdon>
2

>  <LogSw>
-2.666000000000000e+000

>  <Group>
2

$$$$
5581560
 OpenBabel03312015312D

 27 29  0  0  0  0  0  0  0  0999 V2000
   -3.3458    0.4125    0.0000 N   0  0  0  0  0  0  0  0  0  0  0  0
   -3.4708   -0.3292    0.0000 C   0  0  0  0  0  0  0  0  0  0  0  0
   -2.6208    0.5000    0.0000 C   0  0  0  0  0  0  0  0  0  0  0  0
   -2.3125   -0.1500    0.0000 C   0  0  0  0  0  0  0  0  0  0  0  0
   -2.8333   -0.6500    0.0000 S   0  0  0  0  0  0  0  0  0  0  0  0
   -1.5958   -0.2000    0.0000 C   0  0  0  0  0  0  0  0  0  0  0  0
   -3.8333    0.9125    0.0000 C   0  0  0  0  0  0  0  0  0  0  0  0
   -4.1333   -0.6500    0.0000 S   0  0  0  0  0  0  0  0  0  0  0  0
   -4.5333    0.7333    0.0000 C   0  0  0  0  0  0  0  0  0  0  0  0
   -2.3000    1.1208    0.0000 O   0  0  0  0  0  0  0  0  0  0  0  0
   -5.0833    1.2458    0.0000 O   0  0  0  0  0  0  0  0  0  0  0  0
   -1.1958    0.4000    0.0000 C   0  0  0  0  0  0  0  0  0  0  0  0
   -0.0333    2.2333    0.0000 O   0  0  0  0  0  0  0  0  0  0  0  0
   -0.4333    1.6000    0.0000 C   0  0  0  0  0  0  0  0  0  0  0  0
    1.8000    0.3125    0.0000 C   0  0  0  0  0  0  0  0  0  0  0  0
    1.0667    1.5625    0.0000 C   0  0  0  0  0  0  0  0  0  0  0  0
   -4.6833    0.0333    0.0000 O   0  0  0  0  0  0  0  0  0  0  0  0
    0.7167    2.2083    0.0000 C   0  0  0  0  0  0  0  0  0  0  0  0
    2.1792   -0.3000    0.0000 Cl  0  0  0  0  0  0  0  0  0  0  0  0
   -0.4708    0.3500    0.0000 C   0  0  0  0  0  0  0  0  0  0  0  0
   -1.5458    1.0333    0.0000 C   0  0  0  0  0  0  0  0  0  0  0  0
   -1.1625    1.6500    0.0000 C   0  0  0  0  0  0  0  0  0  0  0  0
   -0.0708    0.9500    0.0000 C   0  0  0  0  0  0  0  0  0  0  0  0
    2.1542    0.9125    0.0000 C   0  0  0  0  0  0  0  0  0  0  0  0
    1.0667    0.3125    0.0000 C   0  0  0  0  0  0  0  0  0  0  0  0
    0.7042    0.9458    0.0000 C   0  0  0  0  0  0  0  0  0  0  0  0
    1.7792    1.5500    0.0000 C   0  0  0  0  0  0  0  0  0  0  0  0
  2  1  1  0  0  0  0
  3  1  1  0  0  0  0
  4  3  1  0  0  0  0
  4  5  1  0  0  0  0
  5  2  1  0  0  0  0
  6  4  2  0  0  0  0
  7  1  1  0  0  0  0
  8  2  2  0  0  0  0
  9  7  1  0  0  0  0
 10  3  2  0  0  0  0
 11  9  2  0  0  0  0
 12  6  1  0  0  0  0
 13 14  1  0  0  0  0
 14 22  1  0  0  0  0
 14 23  2  0  0  0  0
 15 24  2  0  0  0  0
 15 25  1  0  0  0  0
 16 18  1  0  0  0  0
 17  9  1  0  0  0  0
 18 13  1  0  0  0  0
 19 15  1  0  0  0  0
 20 12  2  0  0  0  0
 21 12  1  0  0  0  0
 22 21  2  0  0  0  0
 23 20  1  0  0  0  0
 24 27  1  0  0  0  0
 25 26  2  0  0  0  0
 26 16  1  0  0  0  0
 27 16  2  0  0  0  0
M  END
>  <ID>
5581560

>  <Supplier>
ChemBridge

>  <clogP>
3.820000000000000e+000

>  <RB>
6

>  <tPSA>
6.683999999999999e+001

>  <Hacc>
4

>  <Hdon>
1

>  <LogSw>
-5.523000000000000e+000

>  <Group>
3

>  <Core>
001

$$$$
7988540
 OpenBabel03312015312D

 30 31  0  0  0  0  0  0  0  0999 V2000
    1.2792    0.4708    0.0000 S   0  0  0  0  0  0  0  0  0  0  0  0
    1.6542    1.1208    0.0000 N   0  0  0  0  0  0  0  0  0  0  0  0
    2.7792    1.7708    0.0000 C   0  0  0  0  0  0  0  0  0  0  0  0
    2.4042    1.1208    0.0000 C   0  0  3  0  0  0  0  0  0  0  0  0
    4.6542    2.4208    0.0000 C   0  0  0  0  0  0  0  0  0  0  0  0
    3.5292    1.7708    0.0000 N   0  0  0  0  0  0  0  0  0  0  0  0
    3.9042    2.4208    0.0000 C   0  0  0  0  0  0  0  0  0  0  0  0
    5.0292    1.7708    0.0000 C   0  0  0  0  0  0  0  0  0  0  0  0
    0.5542    0.6708    0.0000 O   0  0  0  0  0  0  0  0  0  0  0  0
    1.0292   -0.2292    0.0000 O   0  0  0  0  0  0  0  0  0  0  0  0
    1.2792    1.7708    0.0000 C   0  0  0  0  0  0  0  0  0  0  0  0
    2.4042    2.4208    0.0000 O   0  0  0  0  0  0  0  0  0  0  0  0
    4.6542    1.1208    0.0000 O   0  0  0  0  0  0  0  0  0  0  0  0
    5.7792    1.7708    0.0000 N   0  0  0  0  0  0  0  0  0  0  0  0
    1.6542    2.4208    0.0000 C   0  0  0  0  0  0  0  0  0  0  0  0
    0.5292    1.7708    0.0000 C   0  0  0  0  0  0  0  0  0  0  0  0
    1.9625    0.1583    0.0000 C   0  0  0  0  0  0  0  0  0  0  0  0
    0.1542    2.4208    0.0000 C   0  0  0  0  0  0  0  0  0  0  0  0
    1.2792    3.0708    0.0000 C   0  0  0  0  0  0  0  0  0  0  0  0
    0.5292    3.0708    0.0000 C   0  0  0  0  0  0  0  0  0  0  0  0
    2.7792    0.4708    0.0000 C   0  0  0  0  0  0  0  0  0  0  0  0
    5.0292    3.0708    0.0000 C   0  0  0  0  0  0  0  0  0  0  0  0
    3.5292    3.0708    0.0000 C   0  0  0  0  0  0  0  0  0  0  0  0
    7.2792    0.4708    0.0000 O   0  0  0  0  0  0  0  0  0  0  0  0
    6.1542    1.1208    0.0000 C   0  0  0  0  0  0  0  0  0  0  0  0
    6.9042    1.1208    0.0000 C   0  0  0  0  0  0  0  0  0  0  0  0
    0.1542    3.7208    0.0000 C   0  0  0  0  0  0  0  0  0  0  0  0
    8.0292    0.4708    0.0000 C   0  0  0  0  0  0  0  0  0  0  0  0
    4.6542    3.7208    0.0000 C   0  0  0  0  0  0  0  0  0  0  0  0
    3.9042    3.7208    0.0000 C   0  0  0  0  0  0  0  0  0  0  0  0
  2  1  1  0  0  0  0
  3  4  1  0  0  0  0
  4  2  1  0  0  0  0
  5  7  1  0  0  0  0
  6  3  1  0  0  0  0
  7  6  1  0  0  0  0
  8  5  1  0  0  0  0
  9  1  2  0  0  0  0
 10  1  2  0  0  0  0
 11  2  1  0  0  0  0
 12  3  2  0  0  0  0
 13  8  2  0  0  0  0
 14  8  1  0  0  0  0
 15 11  1  0  0  0  0
 16 11  2  0  0  0  0
 17  1  1  0  0  0  0
 18 16  1  0  0  0  0
 19 15  2  0  0  0  0
 20 18  2  0  0  0  0
 20 19  1  0  0  0  0
 21  4  1  0  0  0  0
 22  5  2  0  0  0  0
 22 29  1  0  0  0  0
 23  7  2  0  0  0  0
 24 26  1  0  0  0  0
 25 14  1  0  0  0  0
 26 25  1  0  0  0  0
 27 20  1  0  0  0  0
 28 24  1  0  0  0  0
 29 30  2  0  0  0  0
 30 23  1  0  0  0  0
M  END
>  <ID>
7988540

>  <Supplier>
ChemBridge

>  <clogP>
2.393000000000000e+000

>  <RB>
7

>  <tPSA>
1.048100000000000e+002

>  <Hacc>
5

>  <Hdon>
2

>  <LogSw>
-4.404000000000000e+000

>  <Group>
1

>  <Core>
555

$$$$
7988546
 OpenBabel03312015312D

 26 28  0  0  0  0  0  0  0  0999 V2000
    5.5250    1.7208    0.0000 N   0  0  0  0  0  0  0  0  0  0  0  0
    4.3667    2.0958    0.0000 C   0  0  0  0  0  0  0  0  0  0  0  0
    5.0792    1.1083    0.0000 C   0  0  0  0  0  0  0  0  0  0  0  0
    5.0792    2.3333    0.0000 C   0  0  0  0  0  0  0  0  0  0  0  0
    4.3667    1.3458    0.0000 C   0  0  0  0  0  0  0  0  0  0  0  0
    3.7625    2.5333    0.0000 C   0  0  0  0  0  0  0  0  0  0  0  0
    3.0792    2.2333    0.0000 C   0  0  0  0  0  0  0  0  0  0  0  0
    6.2750    1.7208    0.0000 C   0  0  0  0  0  0  0  0  0  0  0  0
    2.4667    2.6708    0.0000 C   0  0  0  0  0  0  0  0  0  0  0  0
    1.8667    3.1083    0.0000 N   0  0  0  0  0  0  0  0  0  0  0  0
    0.8667   -0.1792    0.0000 N   0  0  0  0  0  0  0  0  0  0  0  0
    3.0000    1.4833    0.0000 C   0  0  0  0  0  0  0  0  0  0  0  0
    1.5500    0.1250    0.0000 C   0  0  0  0  0  0  0  0  0  0  0  0
    2.3167    1.1750    0.0000 C   0  0  0  0  0  0  0  0  0  0  0  0
    6.6500    1.0708    0.0000 C   0  0  0  0  0  0  0  0  0  0  0  0
    2.2375    0.4333    0.0000 C   0  0  0  0  0  0  0  0  0  0  0  0
    5.3167    0.3958    0.0000 C   0  0  0  0  0  0  0  0  0  0  0  0
    5.3167    3.0458    0.0000 C   0  0  0  0  0  0  0  0  0  0  0  0
    6.6500    2.3708    0.0000 C   0  0  0  0  0  0  0  0  0  0  0  0
    3.6042    1.0458    0.0000 C   0  0  0  0  0  0  0  0  0  0  0  0
    3.5292    0.2958    0.0000 C   0  0  0  0  0  0  0  0  0  0  0  0
    6.2750    0.4208    0.0000 C   0  0  0  0  0  0  0  0  0  0  0  0
    7.4000    1.0708    0.0000 C   0  0  0  0  0  0  0  0  0  0  0  0
    2.8417   -0.0125    0.0000 C   0  0  0  0  0  0  0  0  0  0  0  0
    7.4000    2.3708    0.0000 C   0  0  0  0  0  0  0  0  0  0  0  0
    7.7750    1.7208    0.0000 C   0  0  0  0  0  0  0  0  0  0  0  0
  2  4  2  0  0  0  0
  3  1  1  0  0  0  0
  4  1  1  0  0  0  0
  5  3  2  0  0  0  0
  5  2  1  0  0  0  0
  6  2  1  0  0  0  0
  7  6  2  0  0  0  0
  8  1  1  0  0  0  0
  9  7  1  0  0  0  0
 10  9  3  0  0  0  0
 11 13  3  0  0  0  0
 12  7  1  0  0  0  0
 13 16  1  0  0  0  0
 14 12  2  0  0  0  0
 15  8  1  0  0  0  0
 16 14  1  0  0  0  0
 16 24  2  0  0  0  0
 17  3  1  0  0  0  0
 18  4  1  0  0  0  0
 19  8  2  0  0  0  0
 20 12  1  0  0  0  0
 21 20  2  0  0  0  0
 22 15  1  0  0  0  0
 23 15  2  0  0  0  0
 23 26  1  0  0  0  0
 24 21  1  0  0  0  0
 25 19  1  0  0  0  0
 26 25  2  0  0  0  0
M  END
>  <ID>
7988546

>  <Supplier>
ChemBridge

>  <clogP>
5.338000000000000e+000

>  <RB>
3

>  <tPSA>
5.251000000000001e+001

>  <Hacc>
2

>  <Hdon>
0

>  <LogSw>
-6.484000000000000e+000

>  <Group>
1

>  <Core>
110

$$$$
7988547
 OpenBabel03312015312D

 28 30  0  0  0  0  0  0  0  0999 V2000
    4.3292    3.1083    0.0000 C   0  0  0  0  0  0  0  0  0  0  0  0
    5.0792    3.1083    0.0000 C   0  0  0  0  0  0  0  0  0  0  0  0
    3.9542    3.7583    0.0000 C   0  0  3  0  0  0  0  0  0  0  0  0
    5.0792    4.4000    0.0000 C   0  0  0  0  0  0  0  0  0  0  0  0
    5.4542    3.7583    0.0000 N   0  0  0  0  0  0  0  0  0  0  0  0
    4.3292    4.4000    0.0000 N   0  0  0  0  0  0  0  0  0  0  0  0
    3.9542    2.4583    0.0000 C   0  0  0  0  0  0  0  0  0  0  0  0
    3.2042    3.7583    0.0000 C   0  0  0  0  0  0  0  0  0  0  0  0
    5.4542    5.0417    0.0000 O   0  0  0  0  0  0  0  0  0  0  0  0
    4.3292    1.8083    0.0000 O   0  0  0  0  0  0  0  0  0  0  0  0
    2.8292    4.4000    0.0000 C   0  0  0  0  0  0  0  0  0  0  0  0
    2.8292    3.1083    0.0000 C   0  0  0  0  0  0  0  0  0  0  0  0
    5.4542    2.4583    0.0000 C   0  0  0  0  0  0  0  0  0  0  0  0
    6.2042    2.4583    0.0000 S   0  0  0  0  0  0  0  0  0  0  0  0
    3.2042    2.4583    0.0000 O   0  0  0  0  0  0  0  0  0  0  0  0
    1.7042    3.7583    0.0000 C   0  0  0  0  0  0  0  0  0  0  0  0
    2.0792    4.4000    0.0000 C   0  0  0  0  0  0  0  0  0  0  0  0
    2.0792    3.1083    0.0000 C   0  0  0  0  0  0  0  0  0  0  0  0
    0.9542    3.7583    0.0000 Cl  0  0  0  0  0  0  0  0  0  0  0  0
    7.3292    1.8083    0.0000 C   0  0  0  0  0  0  0  0  0  0  0  0
    6.5792    1.8083    0.0000 C   0  0  0  0  0  0  0  0  0  0  0  0
    2.8292    1.8083    0.0000 C   0  0  0  0  0  0  0  0  0  0  0  0
    7.7042    1.1583    0.0000 C   0  0  0  0  0  0  0  0  0  0  0  0
    7.7042    2.4583    0.0000 C   0  0  0  0  0  0  0  0  0  0  0  0
    2.0792    1.8083    0.0000 C   0  0  0  0  0  0  0  0  0  0  0  0
    8.4542    1.1583    0.0000 C   0  0  0  0  0  0  0  0  0  0  0  0
    8.4542    2.4583    0.0000 C   0  0  0  0  0  0  0  0  0  0  0  0
    8.8292    1.8083    0.0000 C   0  0  0  0  0  0  0  0  0  0  0  0
  2  1  2  0  0  0  0
  3  1  1  0  0  0  0
  4  6  1  0  0  0  0
  5  2  1  0  0  0  0
  5  4  1  0  0  0  0
  6  3  1  0  0  0  0
  7  1  1  0  0  0  0
  8  3  1  0  0  0  0
  9  4  2  0  0  0  0
 10  7  2  0  0  0  0
 11  8  2  0  0  0  0
 12  8  1  0  0  0  0
 13  2  1  0  0  0  0
 14 13  1  0  0  0  0
 15  7  1  0  0  0  0
 16 18  1  0  0  0  0
 16 17  2  0  0  0  0
 17 11  1  0  0  0  0
 18 12  2  0  0  0  0
 19 16  1  0  0  0  0
 20 21  1  0  0  0  0
 21 14  1  0  0  0  0
 22 15  1  0  0  0  0
 23 20  1  0  0  0  0
 24 20  2  0  0  0  0
 25 22  1  0  0  0  0
 26 23  2  0  0  0  0
 27 24  1  0  0  0  0
 28 27  2  0  0  0  0
 28 26  1  0  0  0  0
M  END
>  <ID>
7988547

>  <Supplier>
ChemBridge

>  <clogP>
5.436000000000008e+000

>  <RB>
6

>  <tPSA>
6.743000000000001e+001

>  <Hacc>
3

>  <Hdon>
2

>  <LogSw>
-6.882000000000000e+000

>  <Group>
1

>  <Core>
072

$$$$
7988544
 OpenBabel03312015312D

 29 32  0  0  0  0  0  0  0  0999 V2000
    3.9417    2.1333    0.0000 N   0  0  0  0  0  0  0  0  0  0  0  0
    3.1292    3.0333    0.0000 N   0  0  0  0  0  0  0  0  0  0  0  0
    3.8625    2.8833    0.0000 C   0  0  0  0  0  0  0  0  0  0  0  0
    3.2542    1.8333    0.0000 N   0  0  0  0  0  0  0  0  0  0  0  0
    2.7542    2.3958    0.0000 C   0  0  0  0  0  0  0  0  0  0  0  0
    4.5917    1.7583    0.0000 C   0  0  0  0  0  0  0  0  0  0  0  0
    2.0042    2.3083    0.0000 C   0  0  0  0  0  0  0  0  0  0  0  0
    5.2417    2.1333    0.0000 C   0  0  0  0  0  0  0  0  0  0  0  0
    4.4167    3.3833    0.0000 N   0  0  0  0  0  0  0  0  0  0  0  0
    5.8875    1.7583    0.0000 C   0  0  0  0  0  0  0  0  0  0  0  0
    5.5542    4.4542    0.0000 S   0  0  0  0  0  0  0  0  0  0  0  0
    6.5375    2.1333    0.0000 C   0  0  0  0  0  0  0  0  0  0  0  0
    4.8167    4.6042    0.0000 C   0  0  0  0  0  0  0  0  0  0  0  0
    1.5042    2.8625    0.0000 O   0  0  0  0  0  0  0  0  0  0  0  0
    4.5917    1.0083    0.0000 O   0  0  0  0  0  0  0  0  0  0  0  0
    1.6292    1.6583    0.0000 C   0  0  0  0  0  0  0  0  0  0  0  0
    6.5375    2.8833    0.0000 C   0  0  0  0  0  0  0  0  0  0  0  0
    5.9292    5.1042    0.0000 C   0  0  0  0  0  0  0  0  0  0  0  0
    5.2417    2.8833    0.0000 C   0  0  0  0  0  0  0  0  0  0  0  0
    4.7417    5.3542    0.0000 C   0  0  0  0  0  0  0  0  0  0  0  0
    0.8167    2.5583    0.0000 C   0  0  0  0  0  0  0  0  0  0  0  0
    0.9000    1.8125    0.0000 C   0  0  0  0  0  0  0  0  0  0  0  0
    5.4292    5.6542    0.0000 C   0  0  0  0  0  0  0  0  0  0  0  0
    5.8875    3.2583    0.0000 C   0  0  0  0  0  0  0  0  0  0  0  0
    4.2625    4.1042    0.0000 C   0  0  0  0  0  0  0  0  0  0  0  0
    7.1875    1.7583    0.0000 O   0  0  0  0  0  0  0  0  0  0  0  0
    7.1875    3.2583    0.0000 O   0  0  0  0  0  0  0  0  0  0  0  0
    7.1875    1.0083    0.0000 C   0  0  0  0  0  0  0  0  0  0  0  0
    7.1875    4.0042    0.0000 C   0  0  0  0  0  0  0  0  0  0  0  0
  2  3  2  0  0  0  0
  2  5  1  0  0  0  0
  3  1  1  0  0  0  0
  4  1  1  0  0  0  0
  5  4  2  0  0  0  0
  6  1  1  0  0  0  0
  7  5  1  0  0  0  0
  8  6  1  0  0  0  0
  9  3  1  0  0  0  0
 10  8  1  0  0  0  0
 11 13  1  0  0  0  0
 12 10  2  0  0  0  0
 13 25  1  0  0  0  0
 14  7  1  0  0  0  0
 15  6  2  0  0  0  0
 16  7  2  0  0  0  0
 17 24  2  0  0  0  0
 17 12  1  0  0  0  0
 18 11  1  0  0  0  0
 19  8  2  0  0  0  0
 20 13  2  0  0  0  0
 21 14  1  0  0  0  0
 22 16  1  0  0  0  0
 22 21  2  0  0  0  0
 23 20  1  0  0  0  0
 23 18  2  0  0  0  0
 24 19  1  0  0  0  0
 25  9  1  0  0  0  0
 26 12  1  0  0  0  0
 27 17  1  0  0  0  0
 28 26  1  0  0  0  0
 29 27  1  0  0  0  0
M  END
>  <ID>
7988544

>  <Supplier>
ChemBridge

>  <clogP>
4.476000000000008e+000

>  <RB>
5

>  <tPSA>
9.140999999999998e+001

>  <Hacc>
6

>  <Hdon>
1

>  <LogSw>
-6.015000000000000e+000

>  <Group>
2

>  <Core>
323

$$$$
5581566
 OpenBabel03312015312D

 26 29  0  0  0  0  0  0  0  0999 V2000
   -1.8625    0.2208    0.0000 C   0  0  0  0  0  0  0  0  0  0  0  0
   -1.3625   -0.5000    0.0000 C   0  0  0  0  0  0  0  0  0  0  0  0
   -1.5833    1.0625    0.0000 C   0  0  0  0  0  0  0  0  0  0  0  0
   -1.8625   -1.2000    0.0000 S   0  0  0  0  0  0  0  0  0  0  0  0
   -2.7000   -0.0542    0.0000 C   0  0  0  0  0  0  0  0  0  0  0  0
   -0.4833   -0.5000    0.0000 N   0  0  0  0  0  0  0  0  0  0  0  0
   -2.7000   -0.9375    0.0000 C   0  0  0  0  0  0  0  0  0  0  0  0
   -0.0458   -1.2542    0.0000 C   0  0  0  0  0  0  0  0  0  0  0  0
   -0.7000    1.2458    0.0000 N   0  0  0  0  0  0  0  0  0  0  0  0
    0.8292   -1.2542    0.0000 C   0  0  0  0  0  0  0  0  0  0  0  0
   -0.4625    2.0833    0.0000 C   0  0  0  0  0  0  0  0  0  0  0  0
    1.3667   -1.9542    0.0000 O   0  0  0  0  0  0  0  0  0  0  0  0
   -2.1625    1.7458    0.0000 O   0  0  0  0  0  0  0  0  0  0  0  0
   -0.4833   -2.0167    0.0000 O   0  0  0  0  0  0  0  0  0  0  0  0
    1.3000   -0.5542    0.0000 C   0  0  0  0  0  0  0  0  0  0  0  0
    2.1875   -1.6500    0.0000 C   0  0  0  0  0  0  0  0  0  0  0  0
    2.1292   -0.7667    0.0000 C   0  0  0  0  0  0  0  0  0  0  0  0
    0.4167    2.2833    0.0000 C   0  0  0  0  0  0  0  0  0  0  0  0
   -3.4625    0.3833    0.0000 C   0  0  0  0  0  0  0  0  0  0  0  0
   -3.4625   -1.3792    0.0000 C   0  0  0  0  0  0  0  0  0  0  0  0
   -4.2208   -0.9375    0.0000 C   0  0  0  0  0  0  0  0  0  0  0  0
   -1.0458    2.7458    0.0000 C   0  0  0  0  0  0  0  0  0  0  0  0
    1.0375    1.6833    0.0000 C   0  0  0  0  0  0  0  0  0  0  0  0
    0.6542    3.1083    0.0000 C   0  0  0  0  0  0  0  0  0  0  0  0
   -0.8000    3.5458    0.0000 C   0  0  0  0  0  0  0  0  0  0  0  0
    0.0542    3.7458    0.0000 C   0  0  0  0  0  0  0  0  0  0  0  0
  2  1  2  0  0  0  0
  3  1  1  0  0  0  0
  4  2  1  0  0  0  0
  5  1  1  0  0  0  0
  6  2  1  0  0  0  0
  7  5  2  0  0  0  0
  7  4  1  0  0  0  0
  8  6  1  0  0  0  0
  9  3  1  0  0  0  0
 10  8  1  0  0  0  0
 11  9  1  0  0  0  0
 12 10  1  0  0  0  0
 13  3  2  0  0  0  0
 14  8  2  0  0  0  0
 15 10  2  0  0  0  0
 16 12  1  0  0  0  0
 16 17  2  0  0  0  0
 17 15  1  0  0  0  0
 18 11  1  0  0  0  0
 19  5  1  0  0  0  0
 20  7  1  0  0  0  0
 20 21  1  0  0  0  0
 21 19  1  0  0  0  0
 22 11  2  0  0  0  0
 23 18  1  0  0  0  0
 24 18  2  0  0  0  0
 25 22  1  0  0  0  0
 26 25  2  0  0  0  0
 26 24  1  0  0  0  0
M  END
>  <ID>
5581566

>  <Supplier>
ChemBridge

>  <clogP>
3.660000000000000e+000

>  <RB>
4

>  <tPSA>
7.133999999999999e+001

>  <Hacc>
3

>  <Hdon>
2

>  <LogSw>
-4.997000000000000e+000

>  <Group>
3

>  <Core>
097

$$$$
6469567
 OpenBabel03312015312D

 27 28  0  0  0  0  0  0  0  0999 V2000
    5.7417   -4.4667    0.0000 S   0  0  0  0  0  0  0  0  0  0  0  0
    5.7417   -3.6417    0.0000 N   0  0  0  0  0  0  0  0  0  0  0  0
    5.0250   -3.2292    0.0000 C   0  0  0  0  0  0  0  0  0  0  0  0
    6.4542   -3.2292    0.0000 C   0  0  0  0  0  0  0  0  0  0  0  0
    7.1667   -3.6417    0.0000 C   0  0  0  0  0  0  0  0  0  0  0  0
    8.5917   -3.6375    0.0000 C   0  0  0  0  0  0  0  0  0  0  0  0
    7.8792   -3.2292    0.0000 N   0  0  0  0  0  0  0  0  0  0  0  0
    8.5875   -4.4542    0.0000 C   0  0  0  0  0  0  0  0  0  0  0  0
    6.3250   -5.0500    0.0000 O   0  0  0  0  0  0  0  0  0  0  0  0
    6.5667   -4.4667    0.0000 O   0  0  0  0  0  0  0  0  0  0  0  0
    9.3000   -3.2167    0.0000 C   0  0  0  0  0  0  0  0  0  0  0  0
    5.0292   -2.4000    0.0000 C   0  0  0  0  0  0  0  0  0  0  0  0
    7.1667   -4.4667    0.0000 O   0  0  0  0  0  0  0  0  0  0  0  0
   10.0125   -3.6375    0.0000 C   0  0  0  0  0  0  0  0  0  0  0  0
    9.2917   -4.8667    0.0000 C   0  0  0  0  0  0  0  0  0  0  0  0
    5.0250   -4.8750    0.0000 C   0  0  0  0  0  0  0  0  0  0  0  0
   10.0125   -4.4542    0.0000 C   0  0  0  0  0  0  0  0  0  0  0  0
    9.2917   -5.6917    0.0000 Cl  0  0  0  0  0  0  0  0  0  0  0  0
    9.2917   -2.3917    0.0000 O   0  0  0  0  0  0  0  0  0  0  0  0
    5.7417   -1.9875    0.0000 O   0  0  0  0  0  0  0  0  0  0  0  0
    4.3125   -3.6542    0.0000 C   0  0  0  0  0  0  0  0  0  0  0  0
    4.3167   -1.9875    0.0000 C   0  0  0  0  0  0  0  0  0  0  0  0
    6.4542   -2.4042    0.0000 C   0  0  0  0  0  0  0  0  0  0  0  0
    8.5750   -1.9792    0.0000 C   0  0  0  0  0  0  0  0  0  0  0  0
    3.5917   -3.2292    0.0000 C   0  0  0  0  0  0  0  0  0  0  0  0
    7.1667   -1.9917    0.0000 C   0  0  0  0  0  0  0  0  0  0  0  0
    3.5917   -2.4000    0.0000 C   0  0  0  0  0  0  0  0  0  0  0  0
  2  1  1  0  0  0  0
  3  2  1  0  0  0  0
  4  2  1  0  0  0  0
  5  4  1  0  0  0  0
  6  7  1  0  0  0  0
  7  5  1  0  0  0  0
  8  6  2  0  0  0  0
  9  1  2  0  0  0  0
 10  1  2  0  0  0  0
 11  6  1  0  0  0  0
 12  3  2  0  0  0  0
 13  5  2  0  0  0  0
 14 11  2  0  0  0  0
 15  8  1  0  0  0  0
 16  1  1  0  0  0  0
 17 14  1  0  0  0  0
 17 15  2  0  0  0  0
 18 15  1  0  0  0  0
 19 11  1  0  0  0  0
 20 12  1  0  0  0  0
 21  3  1  0  0  0  0
 22 12  1  0  0  0  0
 23 20  1  0  0  0  0
 24 19  1  0  0  0  0
 25 21  2  0  0  0  0
 26 23  1  0  0  0  0
 27 25  1  0  0  0  0
 27 22  2  0  0  0  0
M  END
>  <ID>
6469567

>  <Supplier>
ChemBridge

>  <clogP>
3.080000000000000e+000

>  <RB>
4

>  <tPSA>
8.494000000000000e+001

>  <Hacc>
5

>  <Hdon>
1

>  <LogSw>
-4.840000000000000e+000

>  <Group>
3

>  <Core>
084

$$$$
6469564
 OpenBabel03312015312D

 21 22  0  0  0  0  0  0  0  0999 V2000
    7.8792   -3.2125    0.0000 N   0  0  0  0  0  0  0  0  0  0  0  0
    8.5917   -3.6167    0.0000 C   0  0  0  0  0  0  0  0  0  0  0  0
    7.1667   -3.6250    0.0000 C   0  0  0  0  0  0  0  0  0  0  0  0
    9.3000   -3.2042    0.0000 C   0  0  0  0  0  0  0  0  0  0  0  0
   10.0125   -3.6167    0.0000 C   0  0  0  0  0  0  0  0  0  0  0  0
    7.1667   -4.4417    0.0000 O   0  0  0  0  0  0  0  0  0  0  0  0
    8.5875   -4.4417    0.0000 C   0  0  0  0  0  0  0  0  0  0  0  0
    5.7375   -3.6250    0.0000 S   0  0  0  0  0  0  0  0  0  0  0  0
   10.0125   -4.4417    0.0000 C   0  0  0  0  0  0  0  0  0  0  0  0
    9.2917   -4.8500    0.0000 C   0  0  0  0  0  0  0  0  0  0  0  0
    4.3042   -3.6250    0.0000 C   0  0  0  0  0  0  0  0  0  0  0  0
   10.7250   -4.8542    0.0000 Cl  0  0  0  0  0  0  0  0  0  0  0  0
    2.8750   -4.4417    0.0000 C   0  0  0  0  0  0  0  0  0  0  0  0
    6.4542   -3.2125    0.0000 C   0  0  0  0  0  0  0  0  0  0  0  0
    3.5875   -4.8625    0.0000 C   0  0  0  0  0  0  0  0  0  0  0  0
    2.8750   -3.6250    0.0000 C   0  0  0  0  0  0  0  0  0  0  0  0
    4.3042   -4.4417    0.0000 C   0  0  0  0  0  0  0  0  0  0  0  0
    3.5875   -3.2042    0.0000 C   0  0  0  0  0  0  0  0  0  0  0  0
    5.0250   -3.2125    0.0000 C   0  0  0  0  0  0  0  0  0  0  0  0
    9.2917   -2.3792    0.0000 C   0  0  0  0  0  0  0  0  0  0  0  0
    2.1542   -4.8667    0.0000 C   0  0  0  0  0  0  0  0  0  0  0  0
  2  1  1  0  0  0  0
  3  1  1  0  0  0  0
  4  2  1  0  0  0  0
  5  4  2  0  0  0  0
  6  3  2  0  0  0  0
  7  2  2  0  0  0  0
  8 14  1  0  0  0  0
  9 10  2  0  0  0  0
  9  5  1  0  0  0  0
 10  7  1  0  0  0  0
 11 19  1  0  0  0  0
 12  9  1  0  0  0  0
 13 16  1  0  0  0  0
 14  3  1  0  0  0  0
 15 17  1  0  0  0  0
 15 13  2  0  0  0  0
 16 18  2  0  0  0  0
 17 11  2  0  0  0  0
 18 11  1  0  0  0  0
 19  8  1  0  0  0  0
 20  4  1  0  0  0  0
 21 13  1  0  0  0  0
M  END
>  <ID>
6469564

>  <Supplier>
ChemBridge

>  <clogP>
4.700000000000000e+000

>  <RB>
5

>  <tPSA>
2.910000000000000e+001

>  <Hacc>
1

>  <Hdon>
1

>  <LogSw>
-5.546000000000000e+000

>  <Group>
1

>  <Core>
431

$$$$
6094927
 OpenBabel03312015312D

 28 31  0  0  0  0  0  0  0  0999 V2000
    5.6542   -2.8667    0.0000 S   0  0  0  0  0  0  0  0  0  0  0  0
    3.3042    1.0750    0.0000 N   0  0  0  0  0  0  0  0  0  0  0  0
    2.6417    0.5958    0.0000 C   0  0  0  0  0  0  0  0  0  0  0  0
    3.7167   -0.1917    0.0000 C   0  0  0  0  0  0  0  0  0  0  0  0
    3.9750    0.5958    0.0000 C   0  0  0  0  0  0  0  0  0  0  0  0
    2.8917   -0.1917    0.0000 S   0  0  0  0  0  0  0  0  0  0  0  0
    4.2042   -0.8625    0.0000 C   0  0  0  0  0  0  0  0  0  0  0  0
    5.1667   -2.2000    0.0000 O   0  0  0  0  0  0  0  0  0  0  0  0
    6.4750   -2.7792    0.0000 C   0  0  0  0  0  0  0  0  0  0  0  0
    3.8667   -1.6167    0.0000 C   0  0  0  0  0  0  0  0  0  0  0  0
    4.3417   -2.2792    0.0000 C   0  0  0  0  0  0  0  0  0  0  0  0
    5.3167   -3.6167    0.0000 O   0  0  0  0  0  0  0  0  0  0  0  0
    5.7792   -2.0500    0.0000 O   0  0  0  0  0  0  0  0  0  0  0  0
    6.9625   -3.4417    0.0000 C   0  0  0  0  0  0  0  0  0  0  0  0
    1.8542    0.8458    0.0000 N   0  0  0  0  0  0  0  0  0  0  0  0
    4.7625    0.8458    0.0000 O   0  0  0  0  0  0  0  0  0  0  0  0
    7.7792   -3.3625    0.0000 C   0  0  0  0  0  0  0  0  0  0  0  0
    6.8167   -2.0167    0.0000 C   0  0  0  0  0  0  0  0  0  0  0  0
    8.1167   -2.6042    0.0000 C   0  0  0  0  0  0  0  0  0  0  0  0
    7.6375   -1.9375    0.0000 C   0  0  0  0  0  0  0  0  0  0  0  0
    3.0417   -1.7000    0.0000 C   0  0  0  0  0  0  0  0  0  0  0  0
    4.0167   -3.0375    0.0000 C   0  0  0  0  0  0  0  0  0  0  0  0
    8.2667   -4.0292    0.0000 C   0  0  0  0  0  0  0  0  0  0  0  0
    8.9417   -2.5167    0.0000 C   0  0  0  0  0  0  0  0  0  0  0  0
    3.2000   -3.1250    0.0000 C   0  0  0  0  0  0  0  0  0  0  0  0
    2.7042   -2.4542    0.0000 C   0  0  0  0  0  0  0  0  0  0  0  0
    9.0875   -3.9417    0.0000 C   0  0  0  0  0  0  0  0  0  0  0  0
    9.4292   -3.1917    0.0000 C   0  0  0  0  0  0  0  0  0  0  0  0
  2  5  1  0  0  0  0
  3  6  1  0  0  0  0
  3  2  1  0  0  0  0
  4  7  2  0  0  0  0
  5  4  1  0  0  0  0
  6  4  1  0  0  0  0
  7 10  1  0  0  0  0
  8  1  1  0  0  0  0
  9  1  1  0  0  0  0
 10 11  2  0  0  0  0
 11  8  1  0  0  0  0
 12  1  2  0  0  0  0
 13  1  2  0  0  0  0
 14  9  2  0  0  0  0
 15  3  2  0  0  0  0
 16  5  2  0  0  0  0
 17 14  1  0  0  0  0
 17 19  1  0  0  0  0
 18  9  1  0  0  0  0
 19 20  1  0  0  0  0
 20 18  2  0  0  0  0
 21 10  1  0  0  0  0
 21 26  2  0  0  0  0
 22 11  1  0  0  0  0
 23 17  2  0  0  0  0
 24 19  2  0  0  0  0
 25 22  2  0  0  0  0
 26 25  1  0  0  0  0
 27 23  1  0  0  0  0
 27 28  2  0  0  0  0
 28 24  1  0  0  0  0
M  END
>  <ID>
6094927

>  <Supplier>
ChemBridge

>  <clogP>
4.220000000000000e+000

>  <RB>
4

>  <tPSA>
9.631999999999999e+001

>  <Hacc>
5

>  <Hdon>
2

>  <LogSw>
-5.796000000000000e+000

>  <Group>
1

>  <Core>
004

$$$$
6094925
 OpenBabel03312015312D

 25 27  0  0  0  0  0  0  0  0999 V2000
   -0.8833    1.1125    0.0000 N   0  3  0  0  0  0  0  0  0  0  0  0
   -0.3333    1.8833    0.0000 C   0  0  0  0  0  0  0  0  0  0  0  0
   -0.9333    2.6625    0.0000 N   0  0  0  0  0  0  0  0  0  0  0  0
   -1.8000    1.3833    0.0000 C   0  0  0  0  0  0  0  0  0  0  0  0
   -1.8000    2.3333    0.0000 C   0  0  0  0  0  0  0  0  0  0  0  0
   -0.5458    0.2333    0.0000 C   0  0  0  0  0  0  0  0  0  0  0  0
    0.3875    0.0708    0.0000 C   0  0  3  0  0  0  0  0  0  0  0  0
    1.6500   -0.9542    0.0000 O   0  0  0  0  0  0  0  0  0  0  0  0
   -0.7208    3.5708    0.0000 C   0  0  0  0  0  0  0  0  0  0  0  0
    0.6042    1.8833    0.0000 C   0  0  0  0  0  0  0  0  0  0  0  0
    2.2375   -0.2292    0.0000 C   0  0  0  0  0  0  0  0  0  0  0  0
    3.4042    1.2708    0.0000 C   0  0  0  0  0  0  0  0  0  0  0  0
    0.7167   -0.8042    0.0000 C   0  0  0  0  0  0  0  0  0  0  0  0
    3.9875    2.0208    0.0000 Cl  0  0  0  0  0  0  0  0  0  0  0  0
   -2.6333    0.9000    0.0000 C   0  0  0  0  0  0  0  0  0  0  0  0
   -2.6333    2.8208    0.0000 C   0  0  0  0  0  0  0  0  0  0  0  0
    1.8875    0.6458    0.0000 C   0  0  0  0  0  0  0  0  0  0  0  0
    3.2000   -0.3500    0.0000 C   0  0  0  0  0  0  0  0  0  0  0  0
    3.7542    0.3833    0.0000 C   0  0  0  0  0  0  0  0  0  0  0  0
    2.4667    1.4125    0.0000 C   0  0  0  0  0  0  0  0  0  0  0  0
    1.0000    0.8000    0.0000 O   0  0  0  0  0  0  0  0  0  0  0  0
    1.0792    2.6958    0.0000 C   0  0  0  0  0  0  0  0  0  0  0  0
   -3.4625    1.3833    0.0000 C   0  0  0  0  0  0  0  0  0  0  0  0
   -3.4625    2.3333    0.0000 C   0  0  0  0  0  0  0  0  0  0  0  0
    2.0042    2.6958    0.0000 C   0  0  0  0  0  0  0  0  0  0  0  0
  2  1  2  0  0  0  0
  3  2  1  0  0  0  0
  4  1  1  0  0  0  0
  5  4  2  0  0  0  0
  5  3  1  0  0  0  0
  6  1  1  0  0  0  0
  7  6  1  0  0  0  0
  8 13  1  0  0  0  0
  9  3  1  0  0  0  0
 10  2  1  0  0  0  0
 11  8  1  0  0  0  0
 12 19  2  0  0  0  0
 13  7  1  0  0  0  0
 14 12  1  0  0  0  0
 15  4  1  0  0  0  0
 16  5  1  0  0  0  0
 17 11  1  0  0  0  0
 18 11  2  0  0  0  0
 19 18  1  0  0  0  0
 20 17  2  0  0  0  0
 20 12  1  0  0  0  0
 21  7  1  0  0  0  0
 22 10  1  0  0  0  0
 23 15  2  0  0  0  0
 24 23  1  0  0  0  0
 24 16  2  0  0  0  0
 25 22  1  0  0  0  0
M  CHG  1   1   1
M  END
>  <ID>
6094925

>  <Supplier>
ChemBridge

>  <clogP>
4.119999999999998e+000

>  <RB>
5

>  <tPSA>
3.827000000000000e+001

>  <Hacc>
4

>  <Hdon>
1

>  <LogSw>
-5.335000000000000e+000

>  <Group>
3

>  <Core>
189

$$$$
5839157
 OpenBabel03312015312D

 26 28  0  0  0  0  0  0  0  0999 V2000
    4.2292   -1.5917    0.0000 C   0  0  0  0  0  0  0  0  0  0  0  0
    4.6792   -2.1917    0.0000 O   0  0  0  0  0  0  0  0  0  0  0  0
    5.3917   -1.9542    0.0000 C   0  0  0  0  0  0  0  0  0  0  0  0
    3.4792   -1.6000    0.0000 C   0  0  0  0  0  0  0  0  0  0  0  0
    4.6667   -0.9792    0.0000 C   0  0  0  0  0  0  0  0  0  0  0  0
    5.3792   -1.2042    0.0000 C   0  0  0  0  0  0  0  0  0  0  0  0
    3.1000   -0.9542    0.0000 N   0  0  0  0  0  0  0  0  0  0  0  0
    6.0042   -2.3875    0.0000 C   0  0  0  0  0  0  0  0  0  0  0  0
   -0.2875   -0.3417    0.0000 C   0  0  0  0  0  0  0  0  0  0  0  0
    0.0917   -0.9875    0.0000 N   0  0  0  0  0  0  0  0  0  0  0  0
    3.1167   -2.2500    0.0000 O   0  0  0  0  0  0  0  0  0  0  0  0
    0.0792    0.3125    0.0000 O   0  0  0  0  0  0  0  0  0  0  0  0
    5.9292   -3.1292    0.0000 C   0  0  0  0  0  0  0  0  0  0  0  0
    6.6792   -2.0750    0.0000 C   0  0  0  0  0  0  0  0  0  0  0  0
    2.3500   -0.9625    0.0000 C   0  0  0  0  0  0  0  0  0  0  0  0
    0.8417   -0.9792    0.0000 C   0  0  0  0  0  0  0  0  0  0  0  0
    7.2250   -3.2542    0.0000 C   0  0  0  0  0  0  0  0  0  0  0  0
    7.2917   -2.5042    0.0000 C   0  0  0  0  0  0  0  0  0  0  0  0
    6.5417   -3.5667    0.0000 C   0  0  0  0  0  0  0  0  0  0  0  0
    7.8375   -3.6917    0.0000 Cl  0  0  0  0  0  0  0  0  0  0  0  0
    1.9667   -0.3042    0.0000 C   0  0  0  0  0  0  0  0  0  0  0  0
    1.9792   -1.6167    0.0000 C   0  0  0  0  0  0  0  0  0  0  0  0
    1.2292   -1.6250    0.0000 C   0  0  0  0  0  0  0  0  0  0  0  0
    1.2167   -0.3167    0.0000 C   0  0  0  0  0  0  0  0  0  0  0  0
   -1.0375   -0.3542    0.0000 C   0  0  0  0  0  0  0  0  0  0  0  0
   -1.4208    0.2958    0.0000 C   0  0  0  0  0  0  0  0  0  0  0  0
  2  1  1  0  0  0  0
  3  2  1  0  0  0  0
  4  1  1  0  0  0  0
  5  1  2  0  0  0  0
  6  5  1  0  0  0  0
  6  3  2  0  0  0  0
  7  4  1  0  0  0  0
  8  3  1  0  0  0  0
  9 10  1  0  0  0  0
 10 16  1  0  0  0  0
 11  4  2  0  0  0  0
 12  9  2  0  0  0  0
 13  8  1  0  0  0  0
 14  8  2  0  0  0  0
 15  7  1  0  0  0  0
 16 23  2  0  0  0  0
 16 24  1  0  0  0  0
 17 18  2  0  0  0  0
 17 19  1  0  0  0  0
 18 14  1  0  0  0  0
 19 13  2  0  0  0  0
 20 17  1  0  0  0  0
 21 15  1  0  0  0  0
 22 15  2  0  0  0  0
 23 22  1  0  0  0  0
 24 21  2  0  0  0  0
 25  9  1  0  0  0  0
 26 25  1  0  0  0  0
M  END
>  <ID>
5839157

>  <Supplier>
ChemBridge

>  <clogP>
4.220000000000000e+000

>  <RB>
4

>  <tPSA>
7.133999999999999e+001

>  <Hacc>
3

>  <Hdon>
2

>  <LogSw>
-5.493000000000000e+000

>  <Group>
3

>  <Core>
466

$$$$
7705436
 OpenBabel03312015312D

 27 29  0  0  0  0  0  0  0  0999 V2000
   10.6375   -4.8125    0.0000 C   0  0  0  0  0  0  0  0  0  0  0  0
   11.1042   -5.8667    0.0000 S   0  0  0  0  0  0  0  0  0  0  0  0
    4.6667   -2.4792    0.0000 N   0  3  0  0  0  0  0  0  0  0  0  0
    9.5167   -4.5667    0.0000 N   0  0  0  0  0  0  0  0  0  0  0  0
   11.4917   -4.0417    0.0000 N   0  0  0  0  0  0  0  0  0  0  0  0
   12.4792   -4.6167    0.0000 N   0  0  0  0  0  0  0  0  0  0  0  0
   12.2417   -5.7417    0.0000 C   0  0  0  0  0  0  0  0  0  0  0  0
    9.1667   -3.4750    0.0000 C   0  0  0  0  0  0  0  0  0  0  0  0
    5.8042   -2.7250    0.0000 C   0  0  0  0  0  0  0  0  0  0  0  0
    4.3250   -1.3792    0.0000 O   0  5  0  0  0  0  0  0  0  0  0  0
    8.0417   -3.2250    0.0000 C   0  0  0  0  0  0  0  0  0  0  0  0
    3.8917   -3.3292    0.0000 O   0  0  0  0  0  0  0  0  0  0  0  0
    9.9417   -2.6250    0.0000 O   0  0  0  0  0  0  0  0  0  0  0  0
   12.6625   -7.6667    0.0000 O   0  0  0  0  0  0  0  0  0  0  0  0
   13.4292   -8.5167    0.0000 C   0  0  0  0  0  0  0  0  0  0  0  0
   13.0125   -6.5875    0.0000 C   0  0  0  0  0  0  0  0  0  0  0  0
    6.1542   -3.8292    0.0000 C   0  0  0  0  0  0  0  0  0  0  0  0
    6.5792   -1.8750    0.0000 C   0  0  0  0  0  0  0  0  0  0  0  0
    7.2750   -4.0667    0.0000 C   0  0  0  0  0  0  0  0  0  0  0  0
    7.7042   -2.1292    0.0000 C   0  0  0  0  0  0  0  0  0  0  0  0
   14.5375   -8.2667    0.0000 C   0  0  0  0  0  0  0  0  0  0  0  0
   14.8792   -7.1792    0.0000 C   0  0  0  0  0  0  0  0  0  0  0  0
   13.0792   -9.6000    0.0000 C   0  0  0  0  0  0  0  0  0  0  0  0
   15.3042   -9.1125    0.0000 C   0  0  0  0  0  0  0  0  0  0  0  0
   16.0000   -6.9375    0.0000 C   0  0  0  0  0  0  0  0  0  0  0  0
   13.8417  -10.4417    0.0000 C   0  0  0  0  0  0  0  0  0  0  0  0
   14.9542  -10.2042    0.0000 C   0  0  0  0  0  0  0  0  0  0  0  0
  2  1  1  0  0  0  0
  3  9  1  0  0  0  0
  4  1  1  0  0  0  0
  5  1  2  0  0  0  0
  6  5  1  0  0  0  0
  6  7  2  0  0  0  0
  7  2  1  0  0  0  0
  8  4  1  0  0  0  0
  9 18  2  0  0  0  0
 10  3  1  0  0  0  0
 11  8  1  0  0  0  0
 12  3  2  0  0  0  0
 13  8  2  0  0  0  0
 14 16  1  0  0  0  0
 15 14  1  0  0  0  0
 16  7  1  0  0  0  0
 17 19  2  0  0  0  0
 17  9  1  0  0  0  0
 18 20  1  0  0  0  0
 19 11  1  0  0  0  0
 20 11  2  0  0  0  0
 21 15  1  0  0  0  0
 22 21  1  0  0  0  0
 23 15  2  0  0  0  0
 24 21  2  0  0  0  0
 25 22  1  0  0  0  0
 26 23  1  0  0  0  0
 27 26  2  0  0  0  0
 27 24  1  0  0  0  0
M  CHG  2   3   1  10  -1
M  END
>  <ID>
7705436

>  <Supplier>
ChemBridge

>  <clogP>
3.515000000000000e+000

>  <RB>
5

>  <tPSA>
1.072500000000000e+002

>  <Hacc>
6

>  <Hdon>
1

>  <LogSw>
-5.377000000000000e+000

>  <Group>
3

>  <Core>
246

$$$$
7459688
 OpenBabel03312015312D

 26 28  0  0  0  0  0  0  0  0999 V2000
    1.1542   -0.9167    0.0000 N   0  0  0  0  0  0  0  0  0  0  0  0
    1.4125   -1.7042    0.0000 C   0  0  0  0  0  0  0  0  0  0  0  0
    1.8250   -0.4292    0.0000 C   0  0  0  0  0  0  0  0  0  0  0  0
    2.4917   -0.9167    0.0000 C   0  0  0  0  0  0  0  0  0  0  0  0
    2.2375   -1.7042    0.0000 N   0  0  0  0  0  0  0  0  0  0  0  0
    2.4042    2.0583    0.0000 N   0  3  0  0  0  0  0  0  0  0  0  0
    3.0125    1.5000    0.0000 C   0  0  0  0  0  0  0  0  0  0  0  0
    0.3750   -0.6625    0.0000 C   0  0  0  0  0  0  0  0  0  0  0  0
    3.2792   -0.6625    0.0000 C   0  0  0  0  0  0  0  0  0  0  0  0
    0.2000    0.1458    0.0000 C   0  0  0  0  0  0  0  0  0  0  0  0
    3.7917    1.7458    0.0000 C   0  0  0  0  0  0  0  0  0  0  0  0
    2.8375    0.6958    0.0000 C   0  0  0  0  0  0  0  0  0  0  0  0
    2.5792    2.8625    0.0000 O   0  5  0  0  0  0  0  0  0  0  0  0
    0.9250   -2.3667    0.0000 O   0  0  0  0  0  0  0  0  0  0  0  0
    1.6167    1.8083    0.0000 O   0  0  0  0  0  0  0  0  0  0  0  0
    1.8167    0.3958    0.0000 O   0  0  0  0  0  0  0  0  0  0  0  0
    3.4500    0.1375    0.0000 C   0  0  0  0  0  0  0  0  0  0  0  0
   -0.5833    0.3958    0.0000 C   0  0  0  0  0  0  0  0  0  0  0  0
    4.4042    1.2083    0.0000 C   0  0  0  0  0  0  0  0  0  0  0  0
    4.2292    0.4000    0.0000 C   0  0  0  0  0  0  0  0  0  0  0  0
    3.9667    2.5583    0.0000 Cl  0  0  0  0  0  0  0  0  0  0  0  0
   -1.1958   -0.1542    0.0000 F   0  0  0  0  0  0  0  0  0  0  0  0
    0.8167    0.6958    0.0000 C   0  0  0  0  0  0  0  0  0  0  0  0
   -0.7583    1.2000    0.0000 C   0  0  0  0  0  0  0  0  0  0  0  0
    0.6417    1.5000    0.0000 C   0  0  0  0  0  0  0  0  0  0  0  0
   -0.1458    1.7583    0.0000 C   0  0  0  0  0  0  0  0  0  0  0  0
  2  1  1  0  0  0  0
  3  1  1  0  0  0  0
  4  3  1  0  0  0  0
  5  2  1  0  0  0  0
  5  4  1  0  0  0  0
  6  7  1  0  0  0  0
  7 12  1  0  0  0  0
  8  1  1  0  0  0  0
  9  4  2  0  0  0  0
 10  8  1  0  0  0  0
 11 19  1  0  0  0  0
 11  7  2  0  0  0  0
 12 17  2  0  0  0  0
 13  6  1  0  0  0  0
 14  2  2  0  0  0  0
 15  6  2  0  0  0  0
 16  3  2  0  0  0  0
 17  9  1  0  0  0  0
 18 10  1  0  0  0  0
 19 20  2  0  0  0  0
 20 17  1  0  0  0  0
 21 11  1  0  0  0  0
 22 18  1  0  0  0  0
 23 10  2  0  0  0  0
 24 18  2  0  0  0  0
 24 26  1  0  0  0  0
 25 23  1  0  0  0  0
 26 25  2  0  0  0  0
M  CHG  2   6   1  13  -1
M  END
>  <ID>
7459688

>  <Supplier>
ChemBridge

>  <clogP>
3.035000000000000e+000

>  <RB>
3

>  <tPSA>
9.255000000000003e+001

>  <Hacc>
4

>  <Hdon>
1

>  <LogSw>
-5.941000000000002e+000

>  <Group>
1

>  <Core>
003

$$$$
7977066
 OpenBabel03312015312D

 25 26  0  0  0  0  0  0  0  0999 V2000
   -1.3583    3.5833    0.0000 S   0  0  0  0  0  0  0  0  0  0  0  0
    2.5417    1.3333    0.0000 N   0  3  0  0  0  0  0  0  0  0  0  0
   -0.7083    3.2083    0.0000 N   0  0  0  0  0  0  0  0  0  0  0  0
    0.5917    3.2083    0.0000 C   0  0  0  0  0  0  0  0  0  0  0  0
   -0.0583    3.5833    0.0000 C   0  0  3  0  0  0  0  0  0  0  0  0
    2.5417    2.0833    0.0000 C   0  0  0  0  0  0  0  0  0  0  0  0
    1.2417    3.5833    0.0000 N   0  0  0  0  0  0  0  0  0  0  0  0
   -1.8875    3.0583    0.0000 C   0  0  0  0  0  0  0  0  0  0  0  0
   -0.9250    4.1917    0.0000 O   0  0  0  0  0  0  0  0  0  0  0  0
   -1.9333    4.0625    0.0000 O   0  0  0  0  0  0  0  0  0  0  0  0
    1.8917    2.4583    0.0000 C   0  0  0  0  0  0  0  0  0  0  0  0
    3.1917    0.9583    0.0000 O   0  5  0  0  0  0  0  0  0  0  0  0
    1.8917    0.9583    0.0000 O   0  0  0  0  0  0  0  0  0  0  0  0
    1.8917    3.2083    0.0000 C   0  0  0  0  0  0  0  0  0  0  0  0
    0.5917    2.4583    0.0000 O   0  0  0  0  0  0  0  0  0  0  0  0
   -2.6083    3.2458    0.0000 C   0  0  0  0  0  0  0  0  0  0  0  0
   -1.6958    2.3333    0.0000 C   0  0  0  0  0  0  0  0  0  0  0  0
   -2.9458    1.9958    0.0000 C   0  0  0  0  0  0  0  0  0  0  0  0
   -3.1458    2.7208    0.0000 C   0  0  0  0  0  0  0  0  0  0  0  0
   -2.2208    1.8000    0.0000 C   0  0  0  0  0  0  0  0  0  0  0  0
   -3.4750    1.4625    0.0000 F   0  0  0  0  0  0  0  0  0  0  0  0
   -0.0583    4.3292    0.0000 C   0  0  0  0  0  0  0  0  0  0  0  0
    3.1917    2.4583    0.0000 C   0  0  0  0  0  0  0  0  0  0  0  0
    3.1917    3.2083    0.0000 C   0  0  0  0  0  0  0  0  0  0  0  0
    2.5417    3.5833    0.0000 C   0  0  0  0  0  0  0  0  0  0  0  0
  2  6  1  0  0  0  0
  3  1  1  0  0  0  0
  4  5  1  0  0  0  0
  5  3  1  0  0  0  0
  6 11  1  0  0  0  0
  6 23  2  0  0  0  0
  7  4  1  0  0  0  0
  8  1  1  0  0  0  0
  9  1  2  0  0  0  0
 10  1  2  0  0  0  0
 11 14  2  0  0  0  0
 12  2  1  0  0  0  0
 13  2  2  0  0  0  0
 14  7  1  0  0  0  0
 15  4  2  0  0  0  0
 16  8  1  0  0  0  0
 17  8  2  0  0  0  0
 18 20  2  0  0  0  0
 18 19  1  0  0  0  0
 19 16  2  0  0  0  0
 20 17  1  0  0  0  0
 21 18  1  0  0  0  0
 22  5  1  0  0  0  0
 23 24  1  0  0  0  0
 24 25  2  0  0  0  0
 25 14  1  0  0  0  0
M  CHG  2   2   1  12  -1
M  END
>  <ID>
7977066

>  <Supplier>
ChemBridge

>  <clogP>
2.952000000000000e+000

>  <RB>
4

>  <tPSA>
1.184100000000000e+002

>  <Hacc>
6

>  <Hdon>
2

>  <LogSw>
-4.789000000000002e+000

>  <Group>
1

>  <Core>
528

$$$$
7977064
 OpenBabel03312015312D

 31 32  0  0  0  0  0  0  0  0999 V2000
    0.9500    0.0958    0.0000 C   0  0  0  0  0  0  0  0  0  0  0  0
    6.9500    2.6958    0.0000 C   0  0  0  0  0  0  0  0  0  0  0  0
    5.8250    3.3458    0.0000 C   0  0  0  0  0  0  0  0  0  0  0  0
    5.4500    2.6958    0.0000 C   0  0  0  0  0  0  0  0  0  0  0  0
    6.5750    3.3458    0.0000 C   0  0  0  0  0  0  0  0  0  0  0  0
    1.3250    0.7458    0.0000 C   0  0  0  0  0  0  0  0  0  0  0  0
    6.5750    2.0458    0.0000 C   0  0  0  0  0  0  0  0  0  0  0  0
    5.8250    2.0458    0.0000 C   0  0  0  0  0  0  0  0  0  0  0  0
    3.5750    2.0458    0.0000 C   0  0  0  0  0  0  0  0  0  0  0  0
    3.2000    1.3958    0.0000 N   0  0  0  0  0  0  0  0  0  0  0  0
    4.7000    2.6958    0.0000 O   0  0  0  0  0  0  0  0  0  0  0  0
    7.7000    2.6958    0.0000 C   0  0  0  0  0  0  0  0  0  0  0  0
    8.0750    2.0458    0.0000 N   0  0  0  0  0  0  0  0  0  0  0  0
    2.0667    0.7458    0.0000 C   0  0  0  0  0  0  0  0  0  0  0  0
    2.4417    1.3958    0.0000 C   0  0  0  0  0  0  0  0  0  0  0  0
    3.2000    2.6958    0.0000 O   0  0  0  0  0  0  0  0  0  0  0  0
    8.8250    2.0458    0.0000 C   0  0  0  0  0  0  0  0  0  0  0  0
    0.2250    0.2875    0.0000 F   0  0  0  0  0  0  0  0  0  0  0  0
    0.6917   -0.6125    0.0000 F   0  0  0  0  0  0  0  0  0  0  0  0
    1.6292   -0.2167    0.0000 F   0  0  0  0  0  0  0  0  0  0  0  0
    4.3250    2.0458    0.0000 C   0  0  0  0  0  0  0  0  0  0  0  0
    6.9500    3.9875    0.0000 Br  0  0  0  0  0  0  0  0  0  0  0  0
    5.4500    1.3958    0.0000 O   0  0  0  0  0  0  0  0  0  0  0  0
    0.9500    1.3958    0.0000 C   0  0  0  0  0  0  0  0  0  0  0  0
    9.7417    1.1208    0.0000 O   0  0  0  0  0  0  0  0  0  0  0  0
    1.3250    2.0458    0.0000 C   0  0  0  0  0  0  0  0  0  0  0  0
    9.0167    1.3208    0.0000 C   0  0  0  0  0  0  0  0  0  0  0  0
    2.0667    2.0458    0.0000 C   0  0  0  0  0  0  0  0  0  0  0  0
    9.5625    2.1708    0.0000 C   0  0  0  0  0  0  0  0  0  0  0  0
    8.7542    2.7875    0.0000 C   0  0  0  0  0  0  0  0  0  0  0  0
    5.8250    0.7458    0.0000 C   0  0  0  0  0  0  0  0  0  0  0  0
  2  7  1  0  0  0  0
  3  4  2  0  0  0  0
  4 11  1  0  0  0  0
  5  3  1  0  0  0  0
  5  2  2  0  0  0  0
  6  1  1  0  0  0  0
  7  8  2  0  0  0  0
  8  4  1  0  0  0  0
  9 10  1  0  0  0  0
 10 15  1  0  0  0  0
 11 21  1  0  0  0  0
 12  2  1  0  0  0  0
 13 12  1  0  0  0  0
 14  6  1  0  0  0  0
 15 14  2  0  0  0  0
 16  9  2  0  0  0  0
 17 13  1  0  0  0  0
 18  1  1  0  0  0  0
 19  1  1  0  0  0  0
 20  1  1  0  0  0  0
 21  9  1  0  0  0  0
 22  5  1  0  0  0  0
 23  8  1  0  0  0  0
 24  6  2  0  0  0  0
 25 27  1  0  0  0  0
 26 24  1  0  0  0  0
 27 17  1  0  0  0  0
 28 26  2  0  0  0  0
 28 15  1  0  0  0  0
 29 17  1  0  0  0  0
 30 17  1  0  0  0  0
 31 23  1  0  0  0  0
M  END
>  <ID>
7977064

>  <Supplier>
ChemBridge

>  <clogP>
4.169000000000000e+000

>  <RB>
8

>  <tPSA>
7.981999999999999e+001

>  <Hacc>
5

>  <Hdon>
3

>  <LogSw>
-6.443000000000001e+000

>  <Group>
1

>  <Core>
315

$$$$
7977063
 OpenBabel03312015312D

 25 27  0  0  0  0  0  0  0  0999 V2000
    4.7000    2.6875    0.0000 N   0  0  0  0  0  0  0  0  0  0  0  0
    5.1375    3.2958    0.0000 C   0  0  0  0  0  0  0  0  0  0  0  0
    3.9875    2.9208    0.0000 C   0  0  0  0  0  0  0  0  0  0  0  0
    4.7000    3.9000    0.0000 N   0  0  0  0  0  0  0  0  0  0  0  0
    1.5542    1.1583    0.0000 N   0  3  0  0  0  0  0  0  0  0  0  0
    3.9875    3.6708    0.0000 O   0  0  0  0  0  0  0  0  0  0  0  0
    5.8875    3.2958    0.0000 C   0  0  0  0  0  0  0  0  0  0  0  0
    2.1667    1.5958    0.0000 C   0  0  0  0  0  0  0  0  0  0  0  0
    6.2625    2.6458    0.0000 C   0  0  0  0  0  0  0  0  0  0  0  0
    7.0125    2.6458    0.0000 C   0  0  0  0  0  0  0  0  0  0  0  0
    3.3792    2.4833    0.0000 C   0  0  0  0  0  0  0  0  0  0  0  0
    0.8750    1.4583    0.0000 O   0  5  0  0  0  0  0  0  0  0  0  0
    1.6375    0.4083    0.0000 O   0  0  0  0  0  0  0  0  0  0  0  0
    7.3875    3.2958    0.0000 C   0  0  0  0  0  0  0  0  0  0  0  0
    6.2625    3.9458    0.0000 C   0  0  0  0  0  0  0  0  0  0  0  0
    2.8500    1.2958    0.0000 C   0  0  0  0  0  0  0  0  0  0  0  0
    2.0875    2.3458    0.0000 C   0  0  0  0  0  0  0  0  0  0  0  0
    3.4542    1.7333    0.0000 C   0  0  0  0  0  0  0  0  0  0  0  0
    2.6917    2.7833    0.0000 C   0  0  0  0  0  0  0  0  0  0  0  0
    7.0125    3.9458    0.0000 C   0  0  0  0  0  0  0  0  0  0  0  0
    7.3875    1.9958    0.0000 O   0  0  0  0  0  0  0  0  0  0  0  0
    8.1375    3.2958    0.0000 O   0  0  0  0  0  0  0  0  0  0  0  0
    7.0125    1.3458    0.0000 C   0  0  0  0  0  0  0  0  0  0  0  0
    8.5125    3.9458    0.0000 C   0  0  0  0  0  0  0  0  0  0  0  0
    7.3875    0.6958    0.0000 C   0  0  0  0  0  0  0  0  0  0  0  0
  2  1  1  0  0  0  0
  3  1  2  0  0  0  0
  4  2  2  0  0  0  0
  5  8  1  0  0  0  0
  6  3  1  0  0  0  0
  6  4  1  0  0  0  0
  7  2  1  0  0  0  0
  8 17  1  0  0  0  0
  8 16  2  0  0  0  0
  9  7  2  0  0  0  0
 10  9  1  0  0  0  0
 11  3  1  0  0  0  0
 12  5  1  0  0  0  0
 13  5  2  0  0  0  0
 14 20  1  0  0  0  0
 14 10  2  0  0  0  0
 15  7  1  0  0  0  0
 16 18  1  0  0  0  0
 17 19  2  0  0  0  0
 18 11  2  0  0  0  0
 19 11  1  0  0  0  0
 20 15  2  0  0  0  0
 21 10  1  0  0  0  0
 22 14  1  0  0  0  0
 23 21  1  0  0  0  0
 24 22  1  0  0  0  0
 25 23  1  0  0  0  0
M  CHG  2   5   1  12  -1
M  END
>  <ID>
7977063

>  <Supplier>
ChemBridge

>  <clogP>
3.720000000000000e+000

>  <RB>
2

>  <tPSA>
1.005200000000000e+002

>  <Hacc>
7

>  <Hdon>
0

>  <LogSw>
-5.256000000000000e+000

>  <Group>
2

>  <Core>
206

$$$$
7977061
 OpenBabel03312015312D

 29 32  0  0  0  0  0  0  0  0999 V2000
    3.7292    2.8375    0.0000 C   0  0  0  0  0  0  0  0  0  0  0  0
    4.4125    2.5333    0.0000 N   0  0  0  0  0  0  0  0  0  0  0  0
    3.8042    3.5833    0.0000 O   0  0  0  0  0  0  0  0  0  0  0  0
    4.9167    3.0958    0.0000 C   0  0  0  0  0  0  0  0  0  0  0  0
    3.0792    2.4625    0.0000 C   0  0  0  0  0  0  0  0  0  0  0  0
    4.5417    3.7458    0.0000 C   0  0  0  0  0  0  0  0  0  0  0  0
    2.4292    2.8375    0.0000 C   0  0  0  0  0  0  0  0  0  0  0  0
    5.6667    3.0958    0.0000 C   0  0  0  0  0  0  0  0  0  0  0  0
    7.1667    3.0958    0.0000 C   0  0  0  0  0  0  0  0  0  0  0  0
    3.0792    1.7125    0.0000 C   0  0  0  0  0  0  0  0  0  0  0  0
    6.7917    3.7458    0.0000 N   0  0  0  0  0  0  0  0  0  0  0  0
    6.0417    3.7458    0.0000 C   0  0  0  0  0  0  0  0  0  0  0  0
    1.7792    2.4625    0.0000 C   0  0  0  0  0  0  0  0  0  0  0  0
    8.2917    2.4458    0.0000 O   0  0  0  0  0  0  0  0  0  0  0  0
    9.0417    2.4458    0.0000 C   0  0  0  0  0  0  0  0  0  0  0  0
    6.7917    2.4458    0.0000 O   0  0  0  0  0  0  0  0  0  0  0  0
    9.4167    1.7958    0.0000 C   0  0  0  0  0  0  0  0  0  0  0  0
    4.9167    4.3875    0.0000 C   0  0  0  0  0  0  0  0  0  0  0  0
    7.9167    3.0958    0.0000 C   0  0  0  0  0  0  0  0  0  0  0  0
    2.4292    1.3375    0.0000 C   0  0  0  0  0  0  0  0  0  0  0  0
    1.7792    1.7125    0.0000 C   0  0  0  0  0  0  0  0  0  0  0  0
    5.6667    4.3875    0.0000 C   0  0  0  0  0  0  0  0  0  0  0  0
    9.0417    1.1458    0.0000 Cl  0  0  0  0  0  0  0  0  0  0  0  0
    2.4292    3.5875    0.0000 C   0  0  0  0  0  0  0  0  0  0  0  0
    9.4167    3.0958    0.0000 C   0  0  0  0  0  0  0  0  0  0  0  0
   10.1667    1.7958    0.0000 C   0  0  0  0  0  0  0  0  0  0  0  0
    1.1292    1.3375    0.0000 C   0  0  0  0  0  0  0  0  0  0  0  0
   10.1667    3.0958    0.0000 C   0  0  0  0  0  0  0  0  0  0  0  0
   10.5417    2.4458    0.0000 C   0  0  0  0  0  0  0  0  0  0  0  0
  2  1  2  0  0  0  0
  3  1  1  0  0  0  0
  4  2  1  0  0  0  0
  5  1  1  0  0  0  0
  6  3  1  0  0  0  0
  6  4  2  0  0  0  0
  7  5  1  0  0  0  0
  8  4  1  0  0  0  0
  9 11  1  0  0  0  0
 10  5  2  0  0  0  0
 11 12  1  0  0  0  0
 12  8  2  0  0  0  0
 13  7  2  0  0  0  0
 13 21  1  0  0  0  0
 14 19  1  0  0  0  0
 15 14  1  0  0  0  0
 16  9  2  0  0  0  0
 17 15  1  0  0  0  0
 18  6  1  0  0  0  0
 19  9  1  0  0  0  0
 20 10  1  0  0  0  0
 21 20  2  0  0  0  0
 22 18  2  0  0  0  0
 22 12  1  0  0  0  0
 23 17  1  0  0  0  0
 24  7  1  0  0  0  0
 25 15  2  0  0  0  0
 26 17  2  0  0  0  0
 26 29  1  0  0  0  0
 27 21  1  0  0  0  0
 28 25  1  0  0  0  0
 29 28  2  0  0  0  0
M  END
>  <ID>
7977061

>  <Supplier>
ChemBridge

>  <clogP>
5.990000000000000e+000

>  <RB>
5

>  <tPSA>
6.436000000000001e+001

>  <Hacc>
4

>  <Hdon>
1

>  <LogSw>
-7.281000000000002e+000

>  <Group>
1

>  <Core>
068

$$$$
6299138
 OpenBabel03312015312D

 24 27  0  0  0  0  0  0  0  0999 V2000
   -3.6333    0.0458    0.0000 C   0  0  3  0  0  0  0  0  0  0  0  0
   -2.8208    1.4500    0.0000 C   0  0  3  0  0  0  0  0  0  0  0  0
   -3.6333    0.9833    0.0000 C   0  0  0  0  0  0  0  0  0  0  0  0
   -3.1833   -1.2042    0.0000 N   0  0  3  0  0  0  0  0  0  0  0  0
   -2.0125    0.0458    0.0000 N   0  0  3  0  0  0  0  0  0  0  0  0
   -2.0125    0.9833    0.0000 C   0  0  0  0  0  0  0  0  0  0  0  0
   -4.3458   -1.2875    0.0000 C   0  0  0  0  0  0  0  0  0  0  0  0
   -3.2000    0.6833    0.0000 C   0  0  0  0  0  0  0  0  0  0  0  0
   -2.8208   -0.4292    0.0000 C   0  0  0  0  0  0  0  0  0  0  0  0
   -2.0000   -0.7000    0.0000 C   0  0  3  0  0  0  0  0  0  0  0  0
   -0.9708   -0.8875    0.0000 C   0  0  0  0  0  0  0  0  0  0  0  0
   -2.8208    2.4208    0.0000 C   0  0  0  0  0  0  0  0  0  0  0  0
   -4.5208    0.0458    0.0000 C   0  0  0  0  0  0  0  0  0  0  0  0
   -4.5000    1.4958    0.0000 O   0  0  0  0  0  0  0  0  0  0  0  0
   -0.3208   -0.0875    0.0000 C   0  0  0  0  0  0  0  0  0  0  0  0
   -0.5958   -1.8875    0.0000 C   0  0  0  0  0  0  0  0  0  0  0  0
    1.1042   -1.2167    0.0000 C   0  0  0  0  0  0  0  0  0  0  0  0
    0.7375   -0.2542    0.0000 C   0  0  0  0  0  0  0  0  0  0  0  0
    0.4500   -2.0375    0.0000 C   0  0  0  0  0  0  0  0  0  0  0  0
    2.1542   -1.3542    0.0000 O   0  0  0  0  0  0  0  0  0  0  0  0
   -1.8833    2.8833    0.0000 C   0  0  0  0  0  0  0  0  0  0  0  0
   -4.9125    1.0125    0.0000 C   0  0  0  0  0  0  0  0  0  0  0  0
   -5.0458   -0.8667    0.0000 C   0  0  0  0  0  0  0  0  0  0  0  0
   -3.7333    2.9458    0.0000 C   0  0  0  0  0  0  0  0  0  0  0  0
  2  3  1  0  0  0  0
  3  1  1  0  0  0  0
  4  7  1  0  0  0  0
  4 10  1  0  0  0  0
  5  9  1  0  0  0  0
  6  5  1  0  0  0  0
  6  2  1  0  0  0  0
  7  1  1  0  0  0  0
  8  4  1  0  0  0  0
  8  2  1  0  0  0  0
  9  1  1  0  0  0  0
 10  5  1  0  0  0  0
 11 10  1  0  0  0  0
 12  2  1  0  0  0  0
 13  1  1  0  0  0  0
 14  3  2  0  0  0  0
 15 11  1  0  0  0  0
 16 11  2  0  0  0  0
 17 19  2  0  0  0  0
 18 15  2  0  0  0  0
 18 17  1  0  0  0  0
 19 16  1  0  0  0  0
 20 17  1  0  0  0  0
 21 12  1  0  0  0  0
 22 13  1  0  0  0  0
 23 13  1  0  0  0  0
 24 12  1  0  0  0  0
M  END
>  <ID>
6299138

>  <Supplier>
ChemBridge

>  <clogP>
4.290000000000000e+000

>  <RB>
1

>  <tPSA>
4.378000000000000e+001

>  <Hacc>
4

>  <Hdon>
1

>  <LogSw>
-3.671000000000000e+000

>  <Group>
2

>  <Core>
298

$$$$
7629294
 OpenBabel03312015312D

 20 21  0  0  0  0  0  0  0  0999 V2000
    5.0542    2.0833    0.0000 C   0  0  0  0  0  0  0  0  0  0  0  0
    8.9542    1.3333    0.0000 C   0  0  0  0  0  0  0  0  0  0  0  0
    5.7042    2.4583    0.0000 C   0  0  0  0  0  0  0  0  0  0  0  0
    8.9542    2.0833    0.0000 C   0  0  0  0  0  0  0  0  0  0  0  0
    9.6042    0.9583    0.0000 C   0  0  0  0  0  0  0  0  0  0  0  0
    4.4042    2.4583    0.0000 C   0  0  0  0  0  0  0  0  0  0  0  0
    6.3542    2.0833    0.0000 O   0  0  0  0  0  0  0  0  0  0  0  0
    8.3042    2.4583    0.0000 O   0  0  0  0  0  0  0  0  0  0  0  0
    5.0542    3.5833    0.0000 C   0  0  0  0  0  0  0  0  0  0  0  0
   10.2542    2.0833    0.0000 C   0  0  0  0  0  0  0  0  0  0  0  0
    5.0542    1.3333    0.0000 C   0  0  0  0  0  0  0  0  0  0  0  0
    8.3042    0.9583    0.0000 C   0  0  0  0  0  0  0  0  0  0  0  0
    9.6042    2.4583    0.0000 C   0  0  0  0  0  0  0  0  0  0  0  0
    5.7042    3.2083    0.0000 C   0  0  0  0  0  0  0  0  0  0  0  0
   10.2542    1.3333    0.0000 C   0  0  0  0  0  0  0  0  0  0  0  0
    4.4042    3.2083    0.0000 C   0  0  0  0  0  0  0  0  0  0  0  0
    3.7542    2.0833    0.0000 C   0  0  0  0  0  0  0  0  0  0  0  0
    9.6042    0.2083    0.0000 C   0  0  0  0  0  0  0  0  0  0  0  0
    7.0042    2.4583    0.0000 C   0  0  0  0  0  0  0  0  0  0  0  0
    7.6542    2.0833    0.0000 C   0  0  0  0  0  0  0  0  0  0  0  0
  2  4  1  0  0  0  0
  3  1  1  0  0  0  0
  4  8  1  0  0  0  0
  5  2  2  0  0  0  0
  6  1  2  0  0  0  0
  7  3  1  0  0  0  0
  8 20  1  0  0  0  0
  9 16  2  0  0  0  0
  9 14  1  0  0  0  0
 10 13  1  0  0  0  0
 11  1  1  0  0  0  0
 12  2  1  0  0  0  0
 13  4  2  0  0  0  0
 14  3  2  0  0  0  0
 15 10  2  0  0  0  0
 15  5  1  0  0  0  0
 16  6  1  0  0  0  0
 17  6  1  0  0  0  0
 18  5  1  0  0  0  0
 19  7  1  0  0  0  0
 20 19  1  0  0  0  0
M  END
>  <ID>
7629294

>  <Supplier>
ChemBridge

>  <clogP>
2.630000000000000e+000

>  <RB>
1

>  <tPSA>
9.306000000000000e+001

>  <Hacc>
6

>  <Hdon>
2

>  <LogSw>
-3.418000000000000e+000

>  <Group>
1

>  <Core>
319

$$$$
6957175
 OpenBabel03312015312D

 22 24  0  0  0  0  0  0  0  0999 V2000
   -1.8958   -0.9167    0.0000 C   0  0  0  0  0  0  0  0  0  0  0  0
   -2.4000   -1.8042    0.0000 C   0  0  0  0  0  0  0  0  0  0  0  0
   -0.8833   -0.9167    0.0000 S   0  0  0  0  0  0  0  0  0  0  0  0
   -3.4500   -1.8042    0.0000 C   0  0  0  0  0  0  0  0  0  0  0  0
   -2.1000   -2.7292    0.0000 N   0  0  0  0  0  0  0  0  0  0  0  0
   -2.4208   -0.0167    0.0000 C   0  0  0  0  0  0  0  0  0  0  0  0
   -2.9000   -3.3792    0.0000 S   0  0  0  0  0  0  0  0  0  0  0  0
   -3.7458   -2.7667    0.0000 N   0  0  0  0  0  0  0  0  0  0  0  0
   -3.9583   -0.9167    0.0000 C   0  0  0  0  0  0  0  0  0  0  0  0
   -3.4458   -0.0167    0.0000 C   0  0  0  0  0  0  0  0  0  0  0  0
   -0.8833   -1.9500    0.0000 O   0  0  0  0  0  0  0  0  0  0  0  0
   -0.8833    0.1000    0.0000 O   0  0  0  0  0  0  0  0  0  0  0  0
    0.1375   -0.9042    0.0000 N   0  0  0  0  0  0  0  0  0  0  0  0
    0.6292   -0.0292    0.0000 C   0  0  0  0  0  0  0  0  0  0  0  0
    2.1292    0.8958    0.0000 C   0  0  0  0  0  0  0  0  0  0  0  0
   -4.9708   -0.9292    0.0000 C   0  0  0  0  0  0  0  0  0  0  0  0
    1.6542    0.0000    0.0000 C   0  0  0  0  0  0  0  0  0  0  0  0
    3.1500    0.9500    0.0000 C   0  0  0  0  0  0  0  0  0  0  0  0
    1.6000    1.7458    0.0000 C   0  0  0  0  0  0  0  0  0  0  0  0
    2.0542    2.6333    0.0000 C   0  0  0  0  0  0  0  0  0  0  0  0
    3.6000    1.8458    0.0000 C   0  0  0  0  0  0  0  0  0  0  0  0
    3.0500    2.7083    0.0000 C   0  0  0  0  0  0  0  0  0  0  0  0
  2  1  1  0  0  0  0
  3  1  1  0  0  0  0
  4  2  1  0  0  0  0
  5  2  2  0  0  0  0
  6  1  2  0  0  0  0
  7  5  1  0  0  0  0
  7  8  1  0  0  0  0
  8  4  2  0  0  0  0
  9 10  2  0  0  0  0
  9  4  1  0  0  0  0
 10  6  1  0  0  0  0
 11  3  2  0  0  0  0
 12  3  2  0  0  0  0
 13  3  1  0  0  0  0
 14 13  1  0  0  0  0
 15 17  1  0  0  0  0
 16  9  1  0  0  0  0
 17 14  1  0  0  0  0
 18 15  2  0  0  0  0
 19 15  1  0  0  0  0
 20 19  2  0  0  0  0
 21 18  1  0  0  0  0
 21 22  2  0  0  0  0
 22 20  1  0  0  0  0
M  END
>  <ID>
6957175

>  <Supplier>
ChemBridge

>  <clogP>
4.619999999999997e+000

>  <RB>
4

>  <tPSA>
7.194999999999997e+001

>  <Hacc>
5

>  <Hdon>
1

>  <LogSw>
-5.577000000000000e+000

>  <Group>
3

$$$$
6957178
 OpenBabel03312015312D

 28 30  0  0  0  0  0  0  0  0999 V2000
    1.7792   -1.3125    0.0000 S   0  0  0  0  0  0  0  0  0  0  0  0
    2.4917   -0.8917    0.0000 N   0  0  0  0  0  0  0  0  0  0  0  0
    4.6292    0.3583    0.0000 C   0  0  0  0  0  0  0  0  0  0  0  0
    5.3417   -0.0542    0.0000 N   0  0  0  0  0  0  0  0  0  0  0  0
    6.0542    0.3625    0.0000 C   0  0  0  0  0  0  0  0  0  0  0  0
    1.0667   -1.7292    0.0000 C   0  0  0  0  0  0  0  0  0  0  0  0
    1.3625   -0.5917    0.0000 O   0  0  0  0  0  0  0  0  0  0  0  0
    2.1875   -2.0250    0.0000 O   0  0  0  0  0  0  0  0  0  0  0  0
    3.9125   -0.0625    0.0000 C   0  0  0  0  0  0  0  0  0  0  0  0
    6.7667   -0.0500    0.0000 C   0  0  0  0  0  0  0  0  0  0  0  0
    3.2042   -1.3042    0.0000 C   0  0  0  0  0  0  0  0  0  0  0  0
    2.4792   -0.0667    0.0000 C   0  0  0  0  0  0  0  0  0  0  0  0
    6.0500    1.1833    0.0000 C   0  0  0  0  0  0  0  0  0  0  0  0
    4.6250    1.1833    0.0000 O   0  0  0  0  0  0  0  0  0  0  0  0
    3.1917    0.3458    0.0000 C   0  0  0  0  0  0  0  0  0  0  0  0
    3.9167   -0.8875    0.0000 C   0  0  0  0  0  0  0  0  0  0  0  0
    0.3500   -1.3167    0.0000 C   0  0  0  0  0  0  0  0  0  0  0  0
    1.0667   -2.5542    0.0000 C   0  0  0  0  0  0  0  0  0  0  0  0
    7.4792    0.3708    0.0000 C   0  0  0  0  0  0  0  0  0  0  0  0
    6.7542    1.6083    0.0000 C   0  0  0  0  0  0  0  0  0  0  0  0
   -0.3625   -2.5542    0.0000 C   0  0  0  0  0  0  0  0  0  0  0  0
   -0.3625   -1.7292    0.0000 C   0  0  0  0  0  0  0  0  0  0  0  0
    0.3500   -2.9667    0.0000 C   0  0  0  0  0  0  0  0  0  0  0  0
    7.4792    1.1958    0.0000 C   0  0  0  0  0  0  0  0  0  0  0  0
   -1.0833   -2.9667    0.0000 F   0  0  0  0  0  0  0  0  0  0  0  0
    6.7792   -0.8667    0.0000 O   0  0  0  0  0  0  0  0  0  0  0  0
    6.7417    2.4333    0.0000 C   0  0  0  0  0  0  0  0  0  0  0  0
    7.4917   -1.2792    0.0000 C   0  0  0  0  0  0  0  0  0  0  0  0
  2  1  1  0  0  0  0
  3  9  1  0  0  0  0
  4  3  1  0  0  0  0
  5  4  1  0  0  0  0
  6  1  1  0  0  0  0
  7  1  2  0  0  0  0
  8  1  2  0  0  0  0
  9 15  1  0  0  0  0
  9 16  1  0  0  0  0
 10  5  2  0  0  0  0
 11  2  1  0  0  0  0
 12  2  1  0  0  0  0
 13  5  1  0  0  0  0
 14  3  2  0  0  0  0
 15 12  1  0  0  0  0
 16 11  1  0  0  0  0
 17  6  2  0  0  0  0
 18  6  1  0  0  0  0
 19 10  1  0  0  0  0
 19 24  2  0  0  0  0
 20 13  2  0  0  0  0
 21 23  1  0  0  0  0
 21 22  2  0  0  0  0
 22 17  1  0  0  0  0
 23 18  2  0  0  0  0
 24 20  1  0  0  0  0
 25 21  1  0  0  0  0
 26 10  1  0  0  0  0
 27 20  1  0  0  0  0
 28 26  1  0  0  0  0
M  END
>  <ID>
6957178

>  <Supplier>
ChemBridge

>  <clogP>
2.490000000000000e+000

>  <RB>
3

>  <tPSA>
7.570999999999999e+001

>  <Hacc>
5

>  <Hdon>
1

>  <LogSw>
-4.290000000000000e+000

>  <Group>
3

>  <Core>
050

$$$$
7785409
 OpenBabel03312015312D

 35 39  0  0  0  0  0  0  0  0999 V2000
   -0.2083   -2.0042    0.0000 C   0  0  0  0  0  0  0  0  0  0  0  0
   -0.6083   -1.5792    0.0000 C   0  0  0  0  0  0  0  0  0  0  0  0
    0.2667   -1.1792    0.0000 N   0  0  0  0  0  0  0  0  0  0  0  0
   -0.3083   -1.0625    0.0000 C   0  0  0  0  0  0  0  0  0  0  0  0
   -0.3833   -2.5625    0.0000 C   0  0  0  0  0  0  0  0  0  0  0  0
    0.3292   -1.7667    0.0000 C   0  0  3  0  0  0  0  0  0  0  0  0
   -0.9500   -2.6917    0.0000 C   0  0  0  0  0  0  0  0  0  0  0  0
   -1.1708   -1.7042    0.0000 O   0  0  0  0  0  0  0  0  0  0  0  0
   -1.3458   -2.2625    0.0000 C   0  0  0  0  0  0  0  0  0  0  0  0
   -1.1250   -3.2500    0.0000 C   0  0  0  0  0  0  0  0  0  0  0  0
    0.7042   -0.7875    0.0000 C   0  0  0  0  0  0  0  0  0  0  0  0
   -1.9208   -2.3875    0.0000 C   0  0  0  0  0  0  0  0  0  0  0  0
    2.3667   -2.9417    0.0000 C   0  0  0  0  0  0  0  0  0  0  0  0
   -1.6958   -3.3792    0.0000 C   0  0  0  0  0  0  0  0  0  0  0  0
    0.8417   -2.0625    0.0000 C   0  0  0  0  0  0  0  0  0  0  0  0
   -2.0875   -2.9417    0.0000 C   0  0  0  0  0  0  0  0  0  0  0  0
   -0.5458   -0.5250    0.0000 O   0  0  0  0  0  0  0  0  0  0  0  0
    0.0250   -3.0042    0.0000 O   0  0  0  0  0  0  0  0  0  0  0  0
    1.8542   -2.6500    0.0000 C   0  0  0  0  0  0  0  0  0  0  0  0
    2.8792   -2.6500    0.0000 O   0  0  0  0  0  0  0  0  0  0  0  0
    0.8417   -2.6500    0.0000 C   0  0  0  0  0  0  0  0  0  0  0  0
    1.3500   -1.7667    0.0000 C   0  0  0  0  0  0  0  0  0  0  0  0
    1.8542   -2.0542    0.0000 C   0  0  0  0  0  0  0  0  0  0  0  0
    1.3500   -2.9417    0.0000 C   0  0  0  0  0  0  0  0  0  0  0  0
    0.5792   -0.2125    0.0000 C   0  0  0  0  0  0  0  0  0  0  0  0
    2.3667   -3.5292    0.0000 O   0  0  0  0  0  0  0  0  0  0  0  0
    1.0125    0.1833    0.0000 C   0  0  0  0  0  0  0  0  0  0  0  0
   -1.8708   -3.9292    0.0000 C   0  0  0  0  0  0  0  0  0  0  0  0
   -2.6625   -3.0667    0.0000 C   0  0  0  0  0  0  0  0  0  0  0  0
    1.8625   -3.8250    0.0000 C   0  0  0  0  0  0  0  0  0  0  0  0
    0.8875    0.7458    0.0000 C   0  0  0  0  0  0  0  0  0  0  0  0
    1.5667    0.0000    0.0000 C   0  0  0  0  0  0  0  0  0  0  0  0
    2.0000    0.3958    0.0000 C   0  0  0  0  0  0  0  0  0  0  0  0
    1.3167    1.1375    0.0000 C   0  0  0  0  0  0  0  0  0  0  0  0
    1.8750    0.9625    0.0000 C   0  0  0  0  0  0  0  0  0  0  0  0
  2  1  2  0  0  0  0
  3  6  1  0  0  0  0
  3  4  1  0  0  0  0
  4  2  1  0  0  0  0
  5  1  1  0  0  0  0
  6  1  1  0  0  0  0
  7  5  1  0  0  0  0
  8  2  1  0  0  0  0
  9  7  2  0  0  0  0
  9  8  1  0  0  0  0
 10  7  1  0  0  0  0
 11  3  1  0  0  0  0
 12  9  1  0  0  0  0
 13 19  1  0  0  0  0
 14 10  2  0  0  0  0
 15  6  1  0  0  0  0
 16 14  1  0  0  0  0
 16 12  2  0  0  0  0
 17  4  2  0  0  0  0
 18  5  2  0  0  0  0
 19 23  1  0  0  0  0
 20 13  2  0  0  0  0
 21 15  2  0  0  0  0
 22 15  1  0  0  0  0
 23 22  2  0  0  0  0
 24 21  1  0  0  0  0
 24 19  2  0  0  0  0
 25 11  1  0  0  0  0
 26 13  1  0  0  0  0
 27 25  1  0  0  0  0
 28 14  1  0  0  0  0
 29 16  1  0  0  0  0
 30 26  1  0  0  0  0
 31 27  1  0  0  0  0
 32 27  2  0  0  0  0
 33 32  1  0  0  0  0
 34 31  2  0  0  0  0
 35 33  2  0  0  0  0
 35 34  1  0  0  0  0
M  END
>  <ID>
7785409

>  <Supplier>
ChemBridge

>  <clogP>
4.870000000000000e+000

>  <RB>
5

>  <tPSA>
7.681999999999999e+001

>  <Hacc>
5

>  <Hdon>
0

>  <LogSw>
-6.767000000000000e+000

>  <Group>
1

>  <Core>
082

$$$$
5412031
 OpenBabel03312015312D

 22 25  0  0  0  0  0  0  0  0999 V2000
    0.7667    2.9958    0.0000 N   0  0  0  0  0  0  0  0  0  0  0  0
    1.4500    3.3833    0.0000 C   0  0  0  0  0  0  0  0  0  0  0  0
   -1.9500    2.2083    0.0000 C   0  0  3  0  0  0  0  0  0  0  0  0
   -2.7125    1.9708    0.0000 C   0  0  3  0  0  0  0  0  0  0  0  0
   -1.9500    2.9833    0.0000 C   0  0  3  0  0  0  0  0  0  0  0  0
   -1.2708    1.8125    0.0000 N   0  0  0  0  0  0  0  0  0  0  0  0
   -3.4625    2.9208    0.0000 C   0  0  3  0  0  0  0  0  0  0  0  0
   -2.0833    3.2708    0.0000 C   0  0  3  0  0  0  0  0  0  0  0  0
   -1.3958    3.5500    0.0000 C   0  0  0  0  0  0  0  0  0  0  0  0
   -2.8000    3.1708    0.0000 C   0  0  0  0  0  0  0  0  0  0  0  0
   -2.0833    2.5000    0.0000 C   0  0  0  0  0  0  0  0  0  0  0  0
   -3.4625    2.2708    0.0000 C   0  0  0  0  0  0  0  0  0  0  0  0
    0.7667    2.2083    0.0000 C   0  0  0  0  0  0  0  0  0  0  0  0
    0.0875    3.3958    0.0000 C   0  0  0  0  0  0  0  0  0  0  0  0
    1.4500    4.1500    0.0000 O   0  0  0  0  0  0  0  0  0  0  0  0
   -2.8958    3.5500    0.0000 C   0  0  0  0  0  0  0  0  0  0  0  0
    0.0875    1.8125    0.0000 C   0  0  0  0  0  0  0  0  0  0  0  0
   -0.5958    2.9958    0.0000 C   0  0  0  0  0  0  0  0  0  0  0  0
   -0.5958    2.2125    0.0000 C   0  0  0  0  0  0  0  0  0  0  0  0
    2.1292    3.0000    0.0000 O   0  0  0  0  0  0  0  0  0  0  0  0
    2.1292    2.2208    0.0000 C   0  0  0  0  0  0  0  0  0  0  0  0
    2.8167    1.8333    0.0000 C   0  0  0  0  0  0  0  0  0  0  0  0
  2  1  1  0  0  0  0
  3  6  1  0  0  0  0
  4  3  1  0  0  0  0
  5  3  1  0  0  0  0
  6 19  1  0  0  0  0
  7 10  1  0  0  0  0
  7 12  1  0  0  0  0
  8  9  1  0  0  0  0
  8 11  1  0  0  0  0
  9  5  1  0  0  0  0
 10  5  1  0  0  0  0
 11  4  1  0  0  0  0
 12  4  1  0  0  0  0
 13  1  1  0  0  0  0
 14  1  1  0  0  0  0
 15  2  2  0  0  0  0
 16  7  1  0  0  0  0
 16  8  1  0  0  0  0
 17 13  1  0  0  0  0
 18 14  1  0  0  0  0
 19 18  1  0  0  0  0
 19 17  1  0  0  0  0
 20  2  1  0  0  0  0
 21 20  1  0  0  0  0
 22 21  1  0  0  0  0
M  END
>  <ID>
5412031

>  <Supplier>
ChemBridge

>  <clogP>
2.970000000000000e+000

>  <RB>
2

>  <tPSA>
4.156999999999998e+001

>  <Hacc>
3

>  <Hdon>
1

>  <LogSw>
-2.963000000000000e+000

>  <Group>
3

$$$$
6391491
 OpenBabel03312015312D

 23 24  0  0  0  0  0  0  0  0999 V2000
    0.2167    1.8083    0.0000 N   0  0  0  0  0  0  0  0  0  0  0  0
    0.2167    0.9833    0.0000 S   0  0  0  0  0  0  0  0  0  0  0  0
   -0.5083    2.2208    0.0000 C   0  0  0  0  0  0  0  0  0  0  0  0
   -1.2208    1.8083    0.0000 N   0  3  0  0  0  0  0  0  0  0  0  0
   -0.5083    3.0625    0.0000 C   0  0  0  0  0  0  0  0  0  0  0  0
    0.9292    3.0625    0.0000 N   0  0  0  0  0  0  0  0  0  0  0  0
    0.9375    2.2333    0.0000 C   0  0  0  0  0  0  0  0  0  0  0  0
    0.2167    0.1625    0.0000 C   0  0  0  0  0  0  0  0  0  0  0  0
    0.9375    0.5708    0.0000 O   0  0  0  0  0  0  0  0  0  0  0  0
   -0.4875    0.5708    0.0000 O   0  0  0  0  0  0  0  0  0  0  0  0
   -1.9333    2.2208    0.0000 O   0  5  0  0  0  0  0  0  0  0  0  0
   -1.2208    0.9833    0.0000 O   0  0  0  0  0  0  0  0  0  0  0  0
   -0.4958   -0.2417    0.0000 C   0  0  0  0  0  0  0  0  0  0  0  0
    0.9292   -0.2500    0.0000 C   0  0  0  0  0  0  0  0  0  0  0  0
    0.2167   -1.4875    0.0000 C   0  0  0  0  0  0  0  0  0  0  0  0
    0.9292   -1.0667    0.0000 C   0  0  0  0  0  0  0  0  0  0  0  0
   -0.5000   -1.0667    0.0000 C   0  0  0  0  0  0  0  0  0  0  0  0
    1.6542    1.8208    0.0000 C   0  0  0  0  0  0  0  0  0  0  0  0
    0.2167   -2.3125    0.0000 O   0  0  0  0  0  0  0  0  0  0  0  0
   -0.5000   -2.7250    0.0000 C   0  0  0  0  0  0  0  0  0  0  0  0
   -0.5083   -3.5417    0.0000 C   0  0  0  0  0  0  0  0  0  0  0  0
    0.2042   -3.9625    0.0000 C   0  0  0  0  0  0  0  0  0  0  0  0
    0.2000   -4.7875    0.0000 C   0  0  0  0  0  0  0  0  0  0  0  0
  2  1  1  0  0  0  0
  3  1  1  0  0  0  0
  4  3  1  0  0  0  0
  5  3  2  0  0  0  0
  6  7  2  0  0  0  0
  6  5  1  0  0  0  0
  7  1  1  0  0  0  0
  8  2  1  0  0  0  0
  9  2  2  0  0  0  0
 10  2  2  0  0  0  0
 11  4  1  0  0  0  0
 12  4  2  0  0  0  0
 13  8  2  0  0  0  0
 14  8  1  0  0  0  0
 15 16  1  0  0  0  0
 15 17  2  0  0  0  0
 16 14  2  0  0  0  0
 17 13  1  0  0  0  0
 18  7  1  0  0  0  0
 19 15  1  0  0  0  0
 20 19  1  0  0  0  0
 21 20  1  0  0  0  0
 22 21  1  0  0  0  0
 23 22  1  0  0  0  0
M  CHG  2   4   1  11  -1
M  END
>  <ID>
6391491

>  <Supplier>
ChemBridge

>  <clogP>
3.230000000000000e+000

>  <RB>
3

>  <tPSA>
1.043300000000000e+002

>  <Hacc>
7

>  <Hdon>
0

>  <LogSw>
-4.823000000000000e+000

>  <Group>
2

$$$$
7187430
 OpenBabel03312015312D

 21 22  0  0  0  0  0  0  0  0999 V2000
    5.7042   -0.9500    0.0000 C   0  0  0  0  0  0  0  0  0  0  0  0
    4.9917   -0.5375    0.0000 N   0  0  0  0  0  0  0  0  0  0  0  0
    4.2792   -0.9500    0.0000 C   0  0  0  0  0  0  0  0  0  0  0  0
    2.8500   -0.9542    0.0000 C   0  0  0  0  0  0  0  0  0  0  0  0
    5.7125   -1.7792    0.0000 C   0  0  0  0  0  0  0  0  0  0  0  0
    3.5625   -0.5375    0.0000 C   0  0  0  0  0  0  0  0  0  0  0  0
    2.1292   -0.5417    0.0000 C   0  0  0  0  0  0  0  0  0  0  0  0
    4.2792   -1.7750    0.0000 O   0  0  0  0  0  0  0  0  0  0  0  0
    6.4250   -2.1875    0.0000 C   0  0  0  0  0  0  0  0  0  0  0  0
    2.1292    0.2875    0.0000 C   0  0  0  0  0  0  0  0  0  0  0  0
    2.8417    0.7083    0.0000 O   0  0  0  0  0  0  0  0  0  0  0  0
    6.4250   -0.5292    0.0000 C   0  0  0  0  0  0  0  0  0  0  0  0
    7.1375   -0.9417    0.0000 C   0  0  0  0  0  0  0  0  0  0  0  0
    5.0000   -2.1917    0.0000 C   0  0  0  0  0  0  0  0  0  0  0  0
    7.1375   -1.7750    0.0000 C   0  0  0  0  0  0  0  0  0  0  0  0
    1.4167   -0.9542    0.0000 C   0  0  0  0  0  0  0  0  0  0  0  0
    6.4292   -3.0125    0.0000 C   0  0  0  0  0  0  0  0  0  0  0  0
    1.4167    0.7000    0.0000 C   0  0  0  0  0  0  0  0  0  0  0  0
    2.8417    1.5333    0.0000 C   0  0  0  0  0  0  0  0  0  0  0  0
    0.7042   -0.5417    0.0000 C   0  0  0  0  0  0  0  0  0  0  0  0
    0.7042    0.2875    0.0000 C   0  0  0  0  0  0  0  0  0  0  0  0
  2  1  1  0  0  0  0
  3  2  1  0  0  0  0
  4  6  2  0  0  0  0
  5  1  1  0  0  0  0
  6  3  1  0  0  0  0
  7  4  1  0  0  0  0
  8  3  2  0  0  0  0
  9  5  2  0  0  0  0
 10  7  1  0  0  0  0
 11 10  1  0  0  0  0
 12  1  2  0  0  0  0
 13 12  1  0  0  0  0
 14  5  1  0  0  0  0
 15 13  2  0  0  0  0
 15  9  1  0  0  0  0
 16  7  2  0  0  0  0
 17  9  1  0  0  0  0
 18 10  2  0  0  0  0
 19 11  1  0  0  0  0
 20 16  1  0  0  0  0
 21 20  2  0  0  0  0
 21 18  1  0  0  0  0
M  END
>  <ID>
7187430

>  <Supplier>
ChemBridge

>  <clogP>
3.880000000000000e+000

>  <RB>
3

>  <tPSA>
3.833000000000000e+001

>  <Hacc>
2

>  <Hdon>
1

>  <LogSw>
-4.566000000000000e+000

>  <Group>
1

>  <Core>
435

$$$$
6391494
 OpenBabel03312015312D

 24 27  0  0  0  0  0  0  0  0999 V2000
   -0.5000   -1.4542    0.0000 C   0  0  0  0  0  0  0  0  0  0  0  0
   -0.6208   -0.6500    0.0000 C   0  0  3  0  0  0  0  0  0  0  0  0
    0.2167   -1.8500    0.0000 C   0  0  0  0  0  0  0  0  0  0  0  0
   -0.0458   -0.0792    0.0000 N   0  0  0  0  0  0  0  0  0  0  0  0
    0.9792   -1.5500    0.0000 N   0  0  0  0  0  0  0  0  0  0  0  0
   -1.3833   -0.3500    0.0000 C   0  0  0  0  0  0  0  0  0  0  0  0
    0.7542   -0.1375    0.0000 C   0  0  0  0  0  0  0  0  0  0  0  0
   -1.2000   -1.8792    0.0000 C   0  0  0  0  0  0  0  0  0  0  0  0
    1.2167   -0.8000    0.0000 C   0  0  0  0  0  0  0  0  0  0  0  0
   -1.5000    0.4333    0.0000 C   0  0  0  0  0  0  0  0  0  0  0  0
   -1.9208   -1.4875    0.0000 O   0  0  0  0  0  0  0  0  0  0  0  0
    0.2167   -2.6542    0.0000 C   0  0  0  0  0  0  0  0  0  0  0  0
   -2.2625    0.7333    0.0000 C   0  0  0  0  0  0  0  0  0  0  0  0
   -2.0000   -0.8542    0.0000 C   0  0  0  0  0  0  0  0  0  0  0  0
   -2.4000    1.5458    0.0000 O   0  0  0  0  0  0  0  0  0  0  0  0
   -1.2000   -2.6542    0.0000 C   0  0  0  0  0  0  0  0  0  0  0  0
   -0.5000   -3.0792    0.0000 C   0  0  0  0  0  0  0  0  0  0  0  0
   -2.7458   -0.5542    0.0000 C   0  0  0  0  0  0  0  0  0  0  0  0
    1.1000    0.5833    0.0000 C   0  0  0  0  0  0  0  0  0  0  0  0
    2.0167   -0.7042    0.0000 C   0  0  0  0  0  0  0  0  0  0  0  0
   -2.8833    0.2208    0.0000 C   0  0  0  0  0  0  0  0  0  0  0  0
   -1.7625    2.0500    0.0000 C   0  0  0  0  0  0  0  0  0  0  0  0
    1.9000    0.6458    0.0000 C   0  0  0  0  0  0  0  0  0  0  0  0
    2.3542    0.0125    0.0000 C   0  0  0  0  0  0  0  0  0  0  0  0
  2  1  1  0  0  0  0
  3  1  2  0  0  0  0
  4  2  1  0  0  0  0
  5  3  1  0  0  0  0
  6  2  1  0  0  0  0
  7  4  1  0  0  0  0
  7  9  2  0  0  0  0
  8  1  1  0  0  0  0
  9  5  1  0  0  0  0
 10  6  1  0  0  0  0
 11  8  2  0  0  0  0
 12  3  1  0  0  0  0
 12 17  1  0  0  0  0
 13 10  2  0  0  0  0
 13 21  1  0  0  0  0
 14  6  2  0  0  0  0
 15 13  1  0  0  0  0
 16  8  1  0  0  0  0
 17 16  1  0  0  0  0
 18 14  1  0  0  0  0
 19  7  1  0  0  0  0
 20  9  1  0  0  0  0
 21 18  2  0  0  0  0
 22 15  1  0  0  0  0
 23 19  2  0  0  0  0
 23 24  1  0  0  0  0
 24 20  2  0  0  0  0
M  END
>  <ID>
6391494

>  <Supplier>
ChemBridge

>  <clogP>
2.470000000000000e+000

>  <RB>
1

>  <tPSA>
5.036000000000001e+001

>  <Hacc>
2

>  <Hdon>
2

>  <LogSw>
-3.646000000000000e+000

>  <Group>
3

>  <Core>
102

$$$$
5716133
 OpenBabel03312015312D

 33 36  0  0  0  0  0  0  0  0999 V2000
    0.9000    1.0333    0.0000 C   0  0  0  0  0  0  0  0  0  0  0  0
   -0.1000    1.6208    0.0000 C   0  0  0  0  0  0  0  0  0  0  0  0
   -0.4458    1.0333    0.0000 C   0  0  0  0  0  0  0  0  0  0  0  0
    0.5792    1.6208    0.0000 C   0  0  3  0  0  0  0  0  0  0  0  0
    0.5792    0.4500    0.0000 C   0  0  0  0  0  0  0  0  0  0  0  0
   -0.1000    0.4500    0.0000 N   0  0  0  0  0  0  0  0  0  0  0  0
   -0.4458    2.1958    0.0000 C   0  0  0  0  0  0  0  0  0  0  0  0
    1.5792    1.0333    0.0000 C   0  0  0  0  0  0  0  0  0  0  0  0
    1.1542    2.6333    0.0000 C   0  0  0  0  0  0  0  0  0  0  0  0
   -1.1125    1.0333    0.0000 C   0  0  0  0  0  0  0  0  0  0  0  0
   -1.4500    1.6208    0.0000 C   0  0  3  0  0  0  0  0  0  0  0  0
   -1.1125    2.1958    0.0000 C   0  0  0  0  0  0  0  0  0  0  0  0
   -0.1208    2.7708    0.0000 O   0  0  0  0  0  0  0  0  0  0  0  0
    0.8375    3.2125    0.0000 C   0  0  0  0  0  0  0  0  0  0  0  0
    1.9042    1.6208    0.0000 O   0  0  0  0  0  0  0  0  0  0  0  0
   -2.1125    1.6208    0.0000 C   0  0  0  0  0  0  0  0  0  0  0  0
    1.9042    0.4125    0.0000 O   0  0  0  0  0  0  0  0  0  0  0  0
    0.9167   -0.1292    0.0000 C   0  0  0  0  0  0  0  0  0  0  0  0
    0.1500    3.2208    0.0000 F   0  0  0  0  0  0  0  0  0  0  0  0
    1.8375    2.6333    0.0000 C   0  0  0  0  0  0  0  0  0  0  0  0
    3.5792   -0.1792    0.0000 O   0  0  0  0  0  0  0  0  0  0  0  0
    1.1542    3.7833    0.0000 C   0  0  0  0  0  0  0  0  0  0  0  0
   -2.4500    2.1958    0.0000 C   0  0  0  0  0  0  0  0  0  0  0  0
   -2.4500    1.0333    0.0000 C   0  0  0  0  0  0  0  0  0  0  0  0
    2.5792    0.4125    0.0000 C   0  0  0  0  0  0  0  0  0  0  0  0
    2.9042   -0.1792    0.0000 C   0  0  0  0  0  0  0  0  0  0  0  0
    3.9167   -0.7542    0.0000 C   0  0  0  0  0  0  0  0  0  0  0  0
    2.1542    3.2125    0.0000 C   0  0  0  0  0  0  0  0  0  0  0  0
    4.5875   -0.7542    0.0000 C   0  0  0  0  0  0  0  0  0  0  0  0
    1.8375    3.7833    0.0000 C   0  0  0  0  0  0  0  0  0  0  0  0
   -3.1208    2.1958    0.0000 C   0  0  0  0  0  0  0  0  0  0  0  0
   -3.1208    1.0333    0.0000 C   0  0  0  0  0  0  0  0  0  0  0  0
   -3.4625    1.6208    0.0000 C   0  0  0  0  0  0  0  0  0  0  0  0
  2  4  1  0  0  0  0
  2  3  2  0  0  0  0
  3  6  1  0  0  0  0
  4  1  1  0  0  0  0
  5  1  2  0  0  0  0
  6  5  1  0  0  0  0
  7  2  1  0  0  0  0
  8  1  1  0  0  0  0
  9  4  1  0  0  0  0
 10  3  1  0  0  0  0
 11 10  1  0  0  0  0
 12  7  1  0  0  0  0
 12 11  1  0  0  0  0
 13  7  2  0  0  0  0
 14  9  1  0  0  0  0
 15  8  2  0  0  0  0
 16 11  1  0  0  0  0
 17  8  1  0  0  0  0
 18  5  1  0  0  0  0
 19 14  1  0  0  0  0
 20  9  2  0  0  0  0
 21 26  1  0  0  0  0
 22 14  2  0  0  0  0
 22 30  1  0  0  0  0
 23 16  2  0  0  0  0
 24 16  1  0  0  0  0
 25 17  1  0  0  0  0
 26 25  1  0  0  0  0
 27 21  1  0  0  0  0
 28 20  1  0  0  0  0
 29 27  1  0  0  0  0
 30 28  2  0  0  0  0
 31 23  1  0  0  0  0
 32 24  2  0  0  0  0
 33 32  1  0  0  0  0
 33 31  2  0  0  0  0
M  END
>  <ID>
5716133

>  <Supplier>
ChemBridge

>  <clogP>
4.580000000000000e+000

>  <RB>
6

>  <tPSA>
6.463000000000000e+001

>  <Hacc>
4

>  <Hdon>
1

>  <LogSw>
-5.380000000000000e+000

>  <Group>
1

>  <Core>
085

$$$$
7943823
 OpenBabel03312015312D

 27 30  0  0  0  0  0  0  0  0999 V2000
    9.7042    0.5625    0.0000 C   0  0  0  0  0  0  0  0  0  0  0  0
    9.2625   -0.0417    0.0000 O   0  0  0  0  0  0  0  0  0  0  0  0
    9.2625    1.1708    0.0000 C   0  0  0  0  0  0  0  0  0  0  0  0
   10.4542    0.5625    0.0000 C   0  0  0  0  0  0  0  0  0  0  0  0
   13.8292   -0.0875    0.0000 C   0  0  0  0  0  0  0  0  0  0  0  0
    8.5500    0.9375    0.0000 C   0  0  0  0  0  0  0  0  0  0  0  0
    8.5500    0.1875    0.0000 C   0  0  0  0  0  0  0  0  0  0  0  0
   14.2042    0.5625    0.0000 N   0  0  0  0  0  0  0  0  0  0  0  0
   10.8292   -0.0875    0.0000 N   0  0  0  0  0  0  0  0  0  0  0  0
   13.0792   -0.0875    0.0000 C   0  0  0  0  0  0  0  0  0  0  0  0
   10.8292    1.2125    0.0000 O   0  0  0  0  0  0  0  0  0  0  0  0
   14.2042   -0.7375    0.0000 O   0  0  0  0  0  0  0  0  0  0  0  0
   11.5792   -0.0875    0.0000 C   0  0  0  0  0  0  0  0  0  0  0  0
   12.7042   -0.7375    0.0000 C   0  0  0  0  0  0  0  0  0  0  0  0
   12.7042    0.5625    0.0000 C   0  0  0  0  0  0  0  0  0  0  0  0
    9.4917    1.8833    0.0000 C   0  0  0  0  0  0  0  0  0  0  0  0
   11.9542    0.5625    0.0000 C   0  0  0  0  0  0  0  0  0  0  0  0
   11.9542   -0.7375    0.0000 C   0  0  0  0  0  0  0  0  0  0  0  0
   14.9542    0.5625    0.0000 C   0  0  0  0  0  0  0  0  0  0  0  0
   13.8292    1.2125    0.0000 C   0  0  0  0  0  0  0  0  0  0  0  0
    7.9000    1.3125    0.0000 C   0  0  0  0  0  0  0  0  0  0  0  0
    7.9000   -0.1875    0.0000 C   0  0  0  0  0  0  0  0  0  0  0  0
   15.3292    1.2125    0.0000 C   0  0  0  0  0  0  0  0  0  0  0  0
   14.2042    1.8625    0.0000 C   0  0  0  0  0  0  0  0  0  0  0  0
    7.2500    0.9375    0.0000 C   0  0  0  0  0  0  0  0  0  0  0  0
    7.2500    0.1875    0.0000 C   0  0  0  0  0  0  0  0  0  0  0  0
   14.9542    1.8625    0.0000 C   0  0  0  0  0  0  0  0  0  0  0  0
  2  1  1  0  0  0  0
  3  1  2  0  0  0  0
  4  1  1  0  0  0  0
  5 10  1  0  0  0  0
  6  3  1  0  0  0  0
  6  7  2  0  0  0  0
  7  2  1  0  0  0  0
  8  5  1  0  0  0  0
  9  4  1  0  0  0  0
 10 14  2  0  0  0  0
 11  4  2  0  0  0  0
 12  5  2  0  0  0  0
 13  9  1  0  0  0  0
 14 18  1  0  0  0  0
 15 17  2  0  0  0  0
 15 10  1  0  0  0  0
 16  3  1  0  0  0  0
 17 13  1  0  0  0  0
 18 13  2  0  0  0  0
 19  8  1  0  0  0  0
 20  8  1  0  0  0  0
 21  6  1  0  0  0  0
 22  7  1  0  0  0  0
 23 19  1  0  0  0  0
 23 27  1  0  0  0  0
 24 20  1  0  0  0  0
 25 21  2  0  0  0  0
 26 22  2  0  0  0  0
 26 25  1  0  0  0  0
 27 24  1  0  0  0  0
M  END
>  <ID>
7943823

>  <Supplier>
ChemBridge

>  <clogP>
3.496000000000000e+000

>  <RB>
3

>  <tPSA>
6.255000000000000e+001

>  <Hacc>
3

>  <Hdon>
1

>  <LogSw>
-4.827999999999998e+000

>  <Group>
3

>  <Core>
150

$$$$
5219501
 OpenBabel03312015312D

 29 31  0  0  0  0  0  0  0  0999 V2000
   -1.9083    0.2833    0.0000 S   0  0  0  0  0  0  0  0  0  0  0  0
   -2.7833    0.2833    0.0000 N   0  0  0  0  0  0  0  0  0  0  0  0
   -3.1708   -0.4542    0.0000 C   0  0  0  0  0  0  0  0  0  0  0  0
    1.8042    1.0208    0.0000 C   0  0  0  0  0  0  0  0  0  0  0  0
   -2.7500   -1.1667    0.0000 N   0  0  0  0  0  0  0  0  0  0  0  0
   -4.0208   -0.4667    0.0000 N   0  0  0  0  0  0  0  0  0  0  0  0
   -1.0958    0.2833    0.0000 C   0  0  0  0  0  0  0  0  0  0  0  0
    2.6500    1.0333    0.0000 C   0  0  0  0  0  0  0  0  0  0  0  0
    1.4000    0.3125    0.0000 N   0  0  0  0  0  0  0  0  0  0  0  0
   -1.9208    1.1208    0.0000 O   0  0  0  0  0  0  0  0  0  0  0  0
   -1.9125   -0.5375    0.0000 O   0  0  0  0  0  0  0  0  0  0  0  0
    3.8792    1.7708    0.0000 C   0  0  0  0  0  0  0  0  0  0  0  0
    3.0500    1.7625    0.0000 C   0  0  0  0  0  0  0  0  0  0  0  0
   -3.1833   -1.9000    0.0000 C   0  0  0  0  0  0  0  0  0  0  0  0
   -4.4458   -1.1875    0.0000 C   0  0  0  0  0  0  0  0  0  0  0  0
    4.3042    1.0500    0.0000 C   0  0  0  0  0  0  0  0  0  0  0  0
    1.4000    1.7208    0.0000 O   0  0  0  0  0  0  0  0  0  0  0  0
   -4.0333   -1.9042    0.0000 C   0  0  0  0  0  0  0  0  0  0  0  0
    3.0542    0.3125    0.0000 C   0  0  0  0  0  0  0  0  0  0  0  0
    3.9000    0.3208    0.0000 C   0  0  0  0  0  0  0  0  0  0  0  0
   -0.6625   -0.4167    0.0000 C   0  0  0  0  0  0  0  0  0  0  0  0
   -0.6708    1.0208    0.0000 C   0  0  0  0  0  0  0  0  0  0  0  0
    0.5792    0.3125    0.0000 C   0  0  0  0  0  0  0  0  0  0  0  0
    4.2875    2.4833    0.0000 F   0  0  0  0  0  0  0  0  0  0  0  0
    5.1375    1.0625    0.0000 F   0  0  0  0  0  0  0  0  0  0  0  0
    0.1875    1.0208    0.0000 C   0  0  0  0  0  0  0  0  0  0  0  0
    0.1792   -0.4042    0.0000 C   0  0  0  0  0  0  0  0  0  0  0  0
   -2.7708   -2.6292    0.0000 C   0  0  0  0  0  0  0  0  0  0  0  0
   -5.2708   -1.2042    0.0000 C   0  0  0  0  0  0  0  0  0  0  0  0
  2  1  1  0  0  0  0
  3  2  1  0  0  0  0
  4  9  1  0  0  0  0
  5  3  1  0  0  0  0
  6  3  2  0  0  0  0
  7  1  1  0  0  0  0
  8  4  1  0  0  0  0
  9 23  1  0  0  0  0
 10  1  2  0  0  0  0
 11  1  2  0  0  0  0
 12 13  1  0  0  0  0
 12 16  2  0  0  0  0
 13  8  2  0  0  0  0
 14  5  2  0  0  0  0
 15  6  1  0  0  0  0
 16 20  1  0  0  0  0
 17  4  2  0  0  0  0
 18 15  2  0  0  0  0
 18 14  1  0  0  0  0
 19  8  1  0  0  0  0
 20 19  2  0  0  0  0
 21  7  1  0  0  0  0
 22  7  2  0  0  0  0
 23 26  2  0  0  0  0
 23 27  1  0  0  0  0
 24 12  1  0  0  0  0
 25 16  1  0  0  0  0
 26 22  1  0  0  0  0
 27 21  2  0  0  0  0
 28 14  1  0  0  0  0
 29 15  1  0  0  0  0
M  END
>  <ID>
5219501

>  <Supplier>
ChemBridge

>  <clogP>
3.060000000000000e+000

>  <RB>
4

>  <tPSA>
1.010500000000000e+002

>  <Hacc>
5

>  <Hdon>
2

>  <LogSw>
-4.863000000000000e+000

>  <Group>
3

>  <Core>
234

$$$$
5330690
 OpenBabel03312015312D

 20 21  0  0  0  0  0  0  0  0999 V2000
    1.4542    1.9958    0.0000 C   0  0  0  0  0  0  0  0  0  0  0  0
    0.7000    2.4333    0.0000 C   0  0  0  0  0  0  0  0  0  0  0  0
   -0.8625    0.6708    0.0000 C   0  0  0  0  0  0  0  0  0  0  0  0
   -0.0833    1.9958    0.0000 N   0  0  0  0  0  0  0  0  0  0  0  0
   -0.0833    1.1125    0.0000 N   0  0  0  0  0  0  0  0  0  0  0  0
   -0.8625   -0.2292    0.0000 C   0  0  0  0  0  0  0  0  0  0  0  0
    1.4542    1.1125    0.0000 C   0  0  0  0  0  0  0  0  0  0  0  0
    0.7000    3.3333    0.0000 O   0  0  0  0  0  0  0  0  0  0  0  0
   -1.6208    1.1125    0.0000 O   0  0  0  0  0  0  0  0  0  0  0  0
   -1.6208   -0.6667    0.0000 C   0  0  0  0  0  0  0  0  0  0  0  0
   -1.6208   -1.5667    0.0000 C   0  0  0  0  0  0  0  0  0  0  0  0
    0.6875    0.6833    0.0000 Br  0  0  0  0  0  0  0  0  0  0  0  0
   -2.4000   -2.0042    0.0000 Cl  0  0  0  0  0  0  0  0  0  0  0  0
    2.2375    2.4583    0.0000 C   0  0  0  0  0  0  0  0  0  0  0  0
   -0.0833   -0.6667    0.0000 C   0  0  0  0  0  0  0  0  0  0  0  0
   -0.0833   -1.5500    0.0000 C   0  0  0  0  0  0  0  0  0  0  0  0
    2.2375    0.6708    0.0000 C   0  0  0  0  0  0  0  0  0  0  0  0
   -0.8458   -2.0042    0.0000 C   0  0  0  0  0  0  0  0  0  0  0  0
    3.0000    2.0208    0.0000 C   0  0  0  0  0  0  0  0  0  0  0  0
    3.0000    1.1125    0.0000 C   0  0  0  0  0  0  0  0  0  0  0  0
  2  1  1  0  0  0  0
  3  5  1  0  0  0  0
  4  2  1  0  0  0  0
  5  4  1  0  0  0  0
  6  3  1  0  0  0  0
  7  1  2  0  0  0  0
  8  2  2  0  0  0  0
  9  3  2  0  0  0  0
 10  6  2  0  0  0  0
 11 10  1  0  0  0  0
 12  7  1  0  0  0  0
 13 11  1  0  0  0  0
 14  1  1  0  0  0  0
 15  6  1  0  0  0  0
 16 15  2  0  0  0  0
 17  7  1  0  0  0  0
 18 16  1  0  0  0  0
 18 11  2  0  0  0  0
 19 14  2  0  0  0  0
 20 19  1  0  0  0  0
 20 17  2  0  0  0  0
M  END
>  <ID>
5330690

>  <Supplier>
ChemBridge

>  <clogP>
4.619999999999998e+000

>  <RB>
3

>  <tPSA>
5.820000000000000e+001

>  <Hacc>
2

>  <Hdon>
2

>  <LogSw>
-5.723999999999998e+000

>  <Group>
1

>  <Core>
442

$$$$
6992220
 OpenBabel03312015312D

 30 33  0  0  0  0  0  0  0  0999 V2000
   -0.9333   -1.8875    0.0000 C   0  0  0  0  0  0  0  0  0  0  0  0
   -0.1125   -1.9042    0.0000 C   0  0  0  0  0  0  0  0  0  0  0  0
   -1.4125   -1.2292    0.0000 N   0  0  0  0  0  0  0  0  0  0  0  0
   -1.4125    3.0500    0.0000 N   0  3  0  0  0  0  0  0  0  0  0  0
   -1.4125   -2.5500    0.0000 S   0  0  0  0  0  0  0  0  0  0  0  0
   -2.1708   -1.4667    0.0000 C   0  0  0  0  0  0  0  0  0  0  0  0
    0.3042   -2.6042    0.0000 N   0  0  0  0  0  0  0  0  0  0  0  0
   -2.1708   -2.2875    0.0000 C   0  0  0  0  0  0  0  0  0  0  0  0
    0.3042   -1.1875    0.0000 N   0  0  0  0  0  0  0  0  0  0  0  0
   -0.9708    2.3500    0.0000 C   0  0  0  0  0  0  0  0  0  0  0  0
   -0.1125   -0.4875    0.0000 N   0  0  0  0  0  0  0  0  0  0  0  0
   -1.0125    3.7708    0.0000 O   0  5  0  0  0  0  0  0  0  0  0  0
   -2.2333    3.0333    0.0000 O   0  0  0  0  0  0  0  0  0  0  0  0
   -0.1500    2.3500    0.0000 C   0  0  0  0  0  0  0  0  0  0  0  0
   -1.3708    1.6333    0.0000 C   0  0  0  0  0  0  0  0  0  0  0  0
    1.1292   -2.5875    0.0000 C   0  0  0  0  0  0  0  0  0  0  0  0
    0.2875    0.2125    0.0000 C   0  0  0  0  0  0  0  0  0  0  0  0
   -0.1333    0.9333    0.0000 C   0  0  0  0  0  0  0  0  0  0  0  0
    0.2667    1.6500    0.0000 C   0  0  0  0  0  0  0  0  0  0  0  0
   -0.9500    0.9333    0.0000 C   0  0  0  0  0  0  0  0  0  0  0  0
    2.7500   -2.5875    0.0000 C   0  0  0  0  0  0  0  0  0  0  0  0
    1.5292   -1.8875    0.0000 C   0  0  0  0  0  0  0  0  0  0  0  0
    1.5292   -3.2875    0.0000 C   0  0  0  0  0  0  0  0  0  0  0  0
    2.3500   -1.8875    0.0000 C   0  0  0  0  0  0  0  0  0  0  0  0
    2.3500   -3.2875    0.0000 C   0  0  0  0  0  0  0  0  0  0  0  0
   -2.8958   -1.0667    0.0000 C   0  0  0  0  0  0  0  0  0  0  0  0
   -2.8958   -2.7042    0.0000 C   0  0  0  0  0  0  0  0  0  0  0  0
    3.5667   -2.6042    0.0000 C   0  0  0  0  0  0  0  0  0  0  0  0
   -3.5958   -1.4667    0.0000 C   0  0  0  0  0  0  0  0  0  0  0  0
   -3.5958   -2.2875    0.0000 C   0  0  0  0  0  0  0  0  0  0  0  0
  2  1  1  0  0  0  0
  3  1  2  0  0  0  0
  4 10  1  0  0  0  0
  5  1  1  0  0  0  0
  6  3  1  0  0  0  0
  7  2  1  0  0  0  0
  8  5  1  0  0  0  0
  8  6  2  0  0  0  0
  9  2  2  0  0  0  0
 10 15  1  0  0  0  0
 10 14  2  0  0  0  0
 11  9  1  0  0  0  0
 12  4  1  0  0  0  0
 13  4  2  0  0  0  0
 14 19  1  0  0  0  0
 15 20  2  0  0  0  0
 16  7  1  0  0  0  0
 17 11  2  0  0  0  0
 18 17  1  0  0  0  0
 19 18  2  0  0  0  0
 20 18  1  0  0  0  0
 21 25  2  0  0  0  0
 21 24  1  0  0  0  0
 22 16  1  0  0  0  0
 23 16  2  0  0  0  0
 24 22  2  0  0  0  0
 25 23  1  0  0  0  0
 26  6  1  0  0  0  0
 27  8  1  0  0  0  0
 28 21  1  0  0  0  0
 29 26  2  0  0  0  0
 29 30  1  0  0  0  0
 30 27  2  0  0  0  0
M  CHG  2   4   1  12  -1
M  END
>  <ID>
6992220

>  <Supplier>
ChemBridge

>  <clogP>
5.370000000000000e+000

>  <RB>
5

>  <tPSA>
9.278000000000000e+001

>  <Hacc>
5

>  <Hdon>
1

>  <LogSw>
-7.205000000000000e+000

>  <Group>
1

$$$$
9055769
 OpenBabel03312015312D

 29 31  0  0  0  0  0  0  0  0999 V2000
    6.3750    2.2833    0.0000 N   0  0  0  0  0  0  0  0  0  0  0  0
    2.4667    1.8000    0.0000 C   0  0  0  0  0  0  0  0  0  0  0  0
    6.8167    2.8958    0.0000 C   0  0  0  0  0  0  0  0  0  0  0  0
    1.7542    2.0333    0.0000 C   0  0  0  0  0  0  0  0  0  0  0  0
    6.3750    3.4958    0.0000 N   0  0  0  0  0  0  0  0  0  0  0  0
    5.6625    2.5208    0.0000 C   0  0  0  0  0  0  0  0  0  0  0  0
    5.6625    3.2708    0.0000 N   0  0  0  0  0  0  0  0  0  0  0  0
    2.4667    1.0500    0.0000 S   0  0  0  0  0  0  0  0  0  0  0  0
    3.0792    2.2458    0.0000 N   0  0  0  0  0  0  0  0  0  0  0  0
    1.3167    1.4250    0.0000 C   0  0  0  0  0  0  0  0  0  0  0  0
    1.5250    2.7458    0.0000 C   0  0  0  0  0  0  0  0  0  0  0  0
    1.7542    0.8208    0.0000 C   0  0  0  0  0  0  0  0  0  0  0  0
    5.0542    2.0708    0.0000 S   0  0  0  0  0  0  0  0  0  0  0  0
    3.7625    1.9375    0.0000 C   0  0  0  0  0  0  0  0  0  0  0  0
    7.5667    2.8958    0.0000 C   0  0  0  0  0  0  0  0  0  0  0  0
    7.9417    2.2375    0.0000 N   0  0  0  0  0  0  0  0  0  0  0  0
    2.0292    3.3083    0.0000 O   0  0  0  0  0  0  0  0  0  0  0  0
    6.6042    1.5708    0.0000 C   0  0  0  0  0  0  0  0  0  0  0  0
    3.8417    1.1958    0.0000 O   0  0  0  0  0  0  0  0  0  0  0  0
    4.3667    2.3750    0.0000 C   0  0  0  0  0  0  0  0  0  0  0  0
    6.1042    1.0083    0.0000 C   0  0  0  0  0  0  0  0  0  0  0  0
    6.3375    0.2958    0.0000 C   0  0  0  0  0  0  0  0  0  0  0  0
    0.7917    2.9000    0.0000 O   0  0  0  0  0  0  0  0  0  0  0  0
    1.5250    0.1083    0.0000 C   0  0  0  0  0  0  0  0  0  0  0  0
    8.6917    2.2375    0.0000 C   0  0  0  0  0  0  0  0  0  0  0  0
    7.9417    3.5458    0.0000 C   0  0  0  0  0  0  0  0  0  0  0  0
    0.5625    3.6208    0.0000 C   0  0  0  0  0  0  0  0  0  0  0  0
    9.0667    2.8958    0.0000 C   0  0  0  0  0  0  0  0  0  0  0  0
    8.6917    3.5458    0.0000 C   0  0  0  0  0  0  0  0  0  0  0  0
  2  9  1  0  0  0  0
  3  1  1  0  0  0  0
  4  2  2  0  0  0  0
  5  3  2  0  0  0  0
  5  7  1  0  0  0  0
  6  1  1  0  0  0  0
  7  6  2  0  0  0  0
  8  2  1  0  0  0  0
  9 14  1  0  0  0  0
 10  4  1  0  0  0  0
 10 12  2  0  0  0  0
 11  4  1  0  0  0  0
 12  8  1  0  0  0  0
 13  6  1  0  0  0  0
 14 20  1  0  0  0  0
 15  3  1  0  0  0  0
 16 15  1  0  0  0  0
 17 11  2  0  0  0  0
 18  1  1  0  0  0  0
 19 14  2  0  0  0  0
 20 13  1  0  0  0  0
 21 18  1  0  0  0  0
 22 21  2  0  0  0  0
 23 11  1  0  0  0  0
 24 12  1  0  0  0  0
 25 16  2  0  0  0  0
 25 28  1  0  0  0  0
 26 15  2  0  0  0  0
 27 23  1  0  0  0  0
 28 29  2  0  0  0  0
 29 26  1  0  0  0  0
M  END
>  <ID>
9055769

>  <Supplier>
ChemBridge

>  <clogP>
2.494000000000000e+000

>  <RB>
8

>  <tPSA>
9.900000000000000e+001

>  <Hacc>
6

>  <Hdon>
1

>  <LogSw>
-4.738000000000000e+000

>  <Group>
1

>  <Core>
098

$$$$
5330696
 OpenBabel03312015312D

 23 25  0  0  0  0  0  0  0  0999 V2000
    0.6167    1.0000    0.0000 C   0  0  0  0  0  0  0  0  0  0  0  0
   -0.3208    0.7833    0.0000 C   0  0  0  0  0  0  0  0  0  0  0  0
   -0.4208   -0.1792    0.0000 N   0  0  0  0  0  0  0  0  0  0  0  0
    0.4792   -0.5542    0.0000 N   0  0  0  0  0  0  0  0  0  0  0  0
    1.1167    0.1625    0.0000 C   0  0  0  0  0  0  0  0  0  0  0  0
    1.1000    1.8458    0.0000 C   0  0  0  0  0  0  0  0  0  0  0  0
   -1.0458    1.4208    0.0000 C   0  0  0  0  0  0  0  0  0  0  0  0
    0.5792   -1.5167    0.0000 C   0  0  0  0  0  0  0  0  0  0  0  0
    2.0792    0.0208    0.0000 O   0  0  0  0  0  0  0  0  0  0  0  0
   -0.8458    2.3625    0.0000 O   0  0  0  0  0  0  0  0  0  0  0  0
    2.0792    1.8458    0.0000 C   0  0  0  0  0  0  0  0  0  0  0  0
   -1.9708    1.1208    0.0000 O   0  0  0  0  0  0  0  0  0  0  0  0
    4.0000    1.8458    0.0000 C   0  0  0  0  0  0  0  0  0  0  0  0
    4.9792    1.8458    0.0000 Cl  0  0  0  0  0  0  0  0  0  0  0  0
    2.5542    2.6833    0.0000 C   0  0  0  0  0  0  0  0  0  0  0  0
    2.5542    1.0000    0.0000 C   0  0  0  0  0  0  0  0  0  0  0  0
    3.5167    2.6833    0.0000 C   0  0  0  0  0  0  0  0  0  0  0  0
    3.5167    1.0000    0.0000 C   0  0  0  0  0  0  0  0  0  0  0  0
    1.4542   -1.9167    0.0000 C   0  0  0  0  0  0  0  0  0  0  0  0
   -0.2208   -2.1000    0.0000 C   0  0  0  0  0  0  0  0  0  0  0  0
   -0.1208   -3.0542    0.0000 C   0  0  0  0  0  0  0  0  0  0  0  0
    1.5542   -2.9000    0.0000 C   0  0  0  0  0  0  0  0  0  0  0  0
    0.7792   -3.4542    0.0000 C   0  0  0  0  0  0  0  0  0  0  0  0
  2  1  1  0  0  0  0
  3  2  2  0  0  0  0
  4  5  1  0  0  0  0
  4  3  1  0  0  0  0
  5  1  1  0  0  0  0
  6  1  2  0  0  0  0
  7  2  1  0  0  0  0
  8  4  1  0  0  0  0
  9  5  2  0  0  0  0
 10  7  2  0  0  0  0
 11  6  1  0  0  0  0
 12  7  1  0  0  0  0
 13 18  2  0  0  0  0
 13 17  1  0  0  0  0
 14 13  1  0  0  0  0
 15 11  1  0  0  0  0
 16 11  2  0  0  0  0
 17 15  2  0  0  0  0
 18 16  1  0  0  0  0
 19  8  1  0  0  0  0
 20  8  2  0  0  0  0
 21 20  1  0  0  0  0
 22 19  2  0  0  0  0
 22 23  1  0  0  0  0
 23 21  2  0  0  0  0
M  END
>  <ID>
5330696

>  <Supplier>
ChemBridge

>  <clogP>
4.730000000000000e+000

>  <RB>
3

>  <tPSA>
6.997000000000000e+001

>  <Hacc>
4

>  <Hdon>
1

>  <LogSw>
-5.621999999999998e+000

>  <Group>
3

>  <Core>
046

$$$$
5139376
 OpenBabel03312015312D

 22 24  0  0  0  0  0  0  0  0999 V2000
   -4.8500    1.5625    0.0000 N   0  3  0  0  0  0  0  0  0  0  0  0
   -3.9583    1.5625    0.0000 C   0  0  0  0  0  0  0  0  0  0  0  0
   -3.4958    0.7833    0.0000 C   0  0  0  0  0  0  0  0  0  0  0  0
   -2.5958    0.7833    0.0000 C   0  0  0  0  0  0  0  0  0  0  0  0
   -2.1333    1.5625    0.0000 C   0  0  0  0  0  0  0  0  0  0  0  0
   -1.2333    1.5625    0.0000 N   0  0  0  0  0  0  0  0  0  0  0  0
   -3.4958    2.3458    0.0000 C   0  0  0  0  0  0  0  0  0  0  0  0
   -2.5958    2.3458    0.0000 C   0  0  0  0  0  0  0  0  0  0  0  0
    0.5875    1.5625    0.0000 N   0  0  0  0  0  0  0  0  0  0  0  0
   -5.3125    2.3458    0.0000 O   0  5  0  0  0  0  0  0  0  0  0  0
   -2.1333    0.0000    0.0000 N   0  0  0  0  0  0  0  0  0  0  0  0
   -5.3125    0.7833    0.0000 O   0  0  0  0  0  0  0  0  0  0  0  0
   -0.7708    0.7833    0.0000 C   0  0  0  0  0  0  0  0  0  0  0  0
   -0.7708    2.3458    0.0000 C   0  0  0  0  0  0  0  0  0  0  0  0
    0.1500    0.7833    0.0000 C   0  0  0  0  0  0  0  0  0  0  0  0
    0.1500    2.3458    0.0000 C   0  0  0  0  0  0  0  0  0  0  0  0
   -3.9583   -0.0042    0.0000 C   0  0  0  0  0  0  0  0  0  0  0  0
    1.5042    1.5625    0.0000 C   0  0  0  0  0  0  0  0  0  0  0  0
    2.8667    2.3458    0.0000 O   0  0  0  0  0  0  0  0  0  0  0  0
   -2.5833   -0.8000    0.0000 C   0  0  0  0  0  0  0  0  0  0  0  0
    1.9500    2.3458    0.0000 C   0  0  0  0  0  0  0  0  0  0  0  0
   -3.5000   -0.8042    0.0000 C   0  0  0  0  0  0  0  0  0  0  0  0
  2  1  1  0  0  0  0
  3  2  1  0  0  0  0
  4  3  2  0  0  0  0
  5  8  2  0  0  0  0
  5  4  1  0  0  0  0
  6  5  1  0  0  0  0
  7  2  2  0  0  0  0
  8  7  1  0  0  0  0
  9 16  1  0  0  0  0
  9 15  1  0  0  0  0
 10  1  1  0  0  0  0
 11  4  1  0  0  0  0
 12  1  2  0  0  0  0
 13  6  1  0  0  0  0
 14  6  1  0  0  0  0
 15 13  1  0  0  0  0
 16 14  1  0  0  0  0
 17  3  1  0  0  0  0
 18  9  1  0  0  0  0
 19 21  1  0  0  0  0
 20 22  1  0  0  0  0
 20 11  2  0  0  0  0
 21 18  1  0  0  0  0
 22 17  2  0  0  0  0
M  CHG  2   1   1  10  -1
M  END
>  <ID>
5139376

>  <Supplier>
ChemBridge

>  <clogP>
1.160000000000000e+000

>  <RB>
3

>  <tPSA>
8.274000000000000e+001

>  <Hacc>
5

>  <Hdon>
1

>  <LogSw>
-1.778000000000000e+000

>  <Group>
3

>  <Core>
162

$$$$
5139373
 OpenBabel03312015312D

 19 20  0  0  0  0  0  0  0  0999 V2000
   -2.7708    1.8708    0.0000 C   0  0  0  0  0  0  0  0  0  0  0  0
   -2.2958    2.6708    0.0000 N   0  3  0  0  0  0  0  0  0  0  0  0
   -2.3125    1.0708    0.0000 C   0  0  0  0  0  0  0  0  0  0  0  0
   -1.3958    1.0708    0.0000 N   0  0  0  0  0  0  0  0  0  0  0  0
   -3.6958    1.8708    0.0000 C   0  0  0  0  0  0  0  0  0  0  0  0
    0.4667    1.0708    0.0000 N   0  0  0  0  0  0  0  0  0  0  0  0
   -2.7708    0.2708    0.0000 C   0  0  0  0  0  0  0  0  0  0  0  0
   -1.3708    2.6708    0.0000 O   0  5  0  0  0  0  0  0  0  0  0  0
   -2.7708    3.4708    0.0000 O   0  0  0  0  0  0  0  0  0  0  0  0
   -0.9333    1.8708    0.0000 C   0  0  0  0  0  0  0  0  0  0  0  0
   -0.9333    0.2708    0.0000 C   0  0  0  0  0  0  0  0  0  0  0  0
   -4.1583    1.0708    0.0000 C   0  0  0  0  0  0  0  0  0  0  0  0
    0.0042    1.8708    0.0000 C   0  0  0  0  0  0  0  0  0  0  0  0
    0.0042    0.2708    0.0000 C   0  0  0  0  0  0  0  0  0  0  0  0
   -3.6958    0.2708    0.0000 C   0  0  0  0  0  0  0  0  0  0  0  0
   -5.0708    1.0958    0.0000 Cl  0  0  0  0  0  0  0  0  0  0  0  0
    1.3875    1.0958    0.0000 C   0  0  0  0  0  0  0  0  0  0  0  0
    2.7667    1.9125    0.0000 O   0  0  0  0  0  0  0  0  0  0  0  0
    1.8292    1.8958    0.0000 C   0  0  0  0  0  0  0  0  0  0  0  0
  2  1  1  0  0  0  0
  3  1  2  0  0  0  0
  4  3  1  0  0  0  0
  5  1  1  0  0  0  0
  6 14  1  0  0  0  0
  6 13  1  0  0  0  0
  7  3  1  0  0  0  0
  8  2  1  0  0  0  0
  9  2  2  0  0  0  0
 10  4  1  0  0  0  0
 11  4  1  0  0  0  0
 12  5  2  0  0  0  0
 13 10  1  0  0  0  0
 14 11  1  0  0  0  0
 15 12  1  0  0  0  0
 15  7  2  0  0  0  0
 16 12  1  0  0  0  0
 17  6  1  0  0  0  0
 18 19  1  0  0  0  0
 19 17  1  0  0  0  0
M  CHG  2   2   1   8  -1
M  END
>  <ID>
5139373

>  <Supplier>
ChemBridge

>  <clogP>
1.640000000000000e+000

>  <RB>
3

>  <tPSA>
6.984999999999998e+001

>  <Hacc>
4

>  <Hdon>
1

>  <LogSw>
-2.067000000000000e+000

>  <Group>
2

>  <Core>
162

$$$$
5139370
 OpenBabel03312015312D

 18 19  0  0  0  0  0  0  0  0999 V2000
   -5.1458    1.1458    0.0000 N   0  3  0  0  0  0  0  0  0  0  0  0
   -1.4125    1.1833    0.0000 N   0  0  0  0  0  0  0  0  0  0  0  0
   -4.1958    1.1625    0.0000 C   0  0  0  0  0  0  0  0  0  0  0  0
    0.4542    1.1833    0.0000 N   0  0  0  0  0  0  0  0  0  0  0  0
   -5.6208    1.9333    0.0000 O   0  5  0  0  0  0  0  0  0  0  0  0
   -2.3333    1.1833    0.0000 C   0  0  0  0  0  0  0  0  0  0  0  0
   -5.6000    0.3125    0.0000 O   0  0  0  0  0  0  0  0  0  0  0  0
   -0.9458    0.3708    0.0000 C   0  0  0  0  0  0  0  0  0  0  0  0
   -0.9458    1.9833    0.0000 C   0  0  0  0  0  0  0  0  0  0  0  0
   -3.7125    0.3625    0.0000 C   0  0  0  0  0  0  0  0  0  0  0  0
   -3.7208    1.9625    0.0000 C   0  0  0  0  0  0  0  0  0  0  0  0
   -2.8000    0.3708    0.0000 C   0  0  0  0  0  0  0  0  0  0  0  0
   -2.8125    1.9625    0.0000 C   0  0  0  0  0  0  0  0  0  0  0  0
   -0.0125    0.3708    0.0000 C   0  0  0  0  0  0  0  0  0  0  0  0
   -0.0208    1.9625    0.0000 C   0  0  0  0  0  0  0  0  0  0  0  0
    1.4042    1.2125    0.0000 C   0  0  0  0  0  0  0  0  0  0  0  0
    2.8167    0.4000    0.0000 O   0  0  0  0  0  0  0  0  0  0  0  0
    1.8875    0.4000    0.0000 C   0  0  0  0  0  0  0  0  0  0  0  0
  2  6  1  0  0  0  0
  3  1  1  0  0  0  0
  4 15  1  0  0  0  0
  5  1  1  0  0  0  0
  6 13  2  0  0  0  0
  6 12  1  0  0  0  0
  7  1  2  0  0  0  0
  8  2  1  0  0  0  0
  9  2  1  0  0  0  0
 10  3  1  0  0  0  0
 11  3  2  0  0  0  0
 12 10  2  0  0  0  0
 13 11  1  0  0  0  0
 14  8  1  0  0  0  0
 14  4  1  0  0  0  0
 15  9  1  0  0  0  0
 16  4  1  0  0  0  0
 17 18  1  0  0  0  0
 18 16  1  0  0  0  0
M  CHG  2   1   1   5  -1
M  END
>  <ID>
5139370

>  <Supplier>
ChemBridge

>  <clogP>
1.070000000000000e+000

>  <RB>
3

>  <tPSA>
6.984999999999998e+001

>  <Hacc>
4

>  <Hdon>
1

>  <LogSw>
-1.329000000000000e+000

>  <Group>
2

>  <Core>
162

$$$$
6509311
 OpenBabel03312015312D

 24 26  0  0  0  0  0  0  0  0999 V2000
   -0.5708    0.2958    0.0000 C   0  0  0  0  0  0  0  0  0  0  0  0
   -1.5708    0.9833    0.0000 C   0  0  0  0  0  0  0  0  0  0  0  0
   -0.5708   -0.9042    0.0000 N   0  0  0  0  0  0  0  0  0  0  0  0
    0.5000    0.9208    0.0000 O   0  0  0  0  0  0  0  0  0  0  0  0
   -2.5958    0.4000    0.0000 C   0  0  0  0  0  0  0  0  0  0  0  0
   -1.5708    3.4208    0.0000 O   0  0  0  0  0  0  0  0  0  0  0  0
    0.4792   -1.5292    0.0000 C   0  0  3  0  0  0  0  0  0  0  0  0
    1.6042   -0.9500    0.0000 C   0  0  0  0  0  0  0  0  0  0  0  0
    2.6875   -1.5542    0.0000 C   0  0  0  0  0  0  0  0  0  0  0  0
   -0.5708    1.5958    0.0000 C   0  0  0  0  0  0  0  0  0  0  0  0
   -2.6333    1.5958    0.0000 C   0  0  0  0  0  0  0  0  0  0  0  0
   -0.5708    2.8000    0.0000 C   0  0  0  0  0  0  0  0  0  0  0  0
   -2.6333    2.8000    0.0000 C   0  0  0  0  0  0  0  0  0  0  0  0
   -3.7958    0.9833    0.0000 C   0  0  0  0  0  0  0  0  0  0  0  0
   -2.5958   -0.8667    0.0000 C   0  0  0  0  0  0  0  0  0  0  0  0
    0.4792   -2.7542    0.0000 C   0  0  0  0  0  0  0  0  0  0  0  0
    2.6875   -2.8000    0.0000 C   0  0  0  0  0  0  0  0  0  0  0  0
    3.7667   -0.9500    0.0000 C   0  0  0  0  0  0  0  0  0  0  0  0
   -4.8958    0.3458    0.0000 C   0  0  0  0  0  0  0  0  0  0  0  0
   -3.7333   -1.5292    0.0000 C   0  0  0  0  0  0  0  0  0  0  0  0
    4.8542   -1.5792    0.0000 C   0  0  0  0  0  0  0  0  0  0  0  0
    3.7542   -3.4167    0.0000 C   0  0  0  0  0  0  0  0  0  0  0  0
   -4.8958   -0.8875    0.0000 C   0  0  0  0  0  0  0  0  0  0  0  0
    4.8667   -2.8167    0.0000 C   0  0  0  0  0  0  0  0  0  0  0  0
  2  1  1  0  0  0  0
  3  1  1  0  0  0  0
  4  1  2  0  0  0  0
  5  2  1  0  0  0  0
  6 13  1  0  0  0  0
  7  3  1  0  0  0  0
  8  7  1  0  0  0  0
  9  8  1  0  0  0  0
 10  2  1  0  0  0  0
 11  2  1  0  0  0  0
 12 10  1  0  0  0  0
 12  6  1  0  0  0  0
 13 11  1  0  0  0  0
 14  5  2  0  0  0  0
 15  5  1  0  0  0  0
 16  7  1  0  0  0  0
 17  9  2  0  0  0  0
 18  9  1  0  0  0  0
 19 14  1  0  0  0  0
 19 23  2  0  0  0  0
 20 15  2  0  0  0  0
 21 18  2  0  0  0  0
 22 17  1  0  0  0  0
 23 20  1  0  0  0  0
 24 21  1  0  0  0  0
 24 22  2  0  0  0  0
M  END
>  <ID>
6509311

>  <Supplier>
ChemBridge

>  <clogP>
2.710000000000000e+000

>  <RB>
5

>  <tPSA>
3.833000000000000e+001

>  <Hacc>
2

>  <Hdon>
1

>  <LogSw>
-3.873000000000000e+000

>  <Group>
3

>  <Core>
288

$$$$
6509310
 OpenBabel03312015312D

 34 36  0  0  0  0  0  0  0  0999 V2000
    2.4917    0.0750    0.0000 S   0  0  0  0  0  0  0  0  0  0  0  0
    2.4917   -0.7500    0.0000 N   0  0  0  0  0  0  0  0  0  0  0  0
    1.7792    0.4875    0.0000 C   0  0  0  0  0  0  0  0  0  0  0  0
    3.2125   -1.1542    0.0000 C   0  0  0  0  0  0  0  0  0  0  0  0
    3.9250   -0.7417    0.0000 C   0  0  0  0  0  0  0  0  0  0  0  0
    1.0625    0.0750    0.0000 C   0  0  0  0  0  0  0  0  0  0  0  0
    4.6417   -1.1542    0.0000 N   0  0  0  0  0  0  0  0  0  0  0  0
    4.6417   -1.9792    0.0000 C   0  0  0  0  0  0  0  0  0  0  0  0
    3.2042    0.4958    0.0000 O   0  0  0  0  0  0  0  0  0  0  0  0
    1.7917   -0.3542    0.0000 O   0  0  0  0  0  0  0  0  0  0  0  0
    5.3542   -2.3875    0.0000 C   0  0  0  0  0  0  0  0  0  0  0  0
    0.3500    0.4875    0.0000 C   0  0  0  0  0  0  0  0  0  0  0  0
    1.7792   -1.1625    0.0000 C   0  0  0  0  0  0  0  0  0  0  0  0
    0.3500    1.3125    0.0000 C   0  0  0  0  0  0  0  0  0  0  0  0
    1.7792    1.3208    0.0000 C   0  0  0  0  0  0  0  0  0  0  0  0
    3.9250    0.0833    0.0000 O   0  0  0  0  0  0  0  0  0  0  0  0
    5.3542   -3.2042    0.0000 C   0  0  0  0  0  0  0  0  0  0  0  0
    1.0625    1.7333    0.0000 C   0  0  0  0  0  0  0  0  0  0  0  0
    1.0667   -0.7417    0.0000 C   0  0  0  0  0  0  0  0  0  0  0  0
    1.7875   -1.9792    0.0000 C   0  0  0  0  0  0  0  0  0  0  0  0
    0.3542   -1.9875    0.0000 C   0  0  0  0  0  0  0  0  0  0  0  0
   -0.3708    0.0833    0.0000 O   0  0  0  0  0  0  0  0  0  0  0  0
    0.3542   -1.1542    0.0000 C   0  0  0  0  0  0  0  0  0  0  0  0
    1.0792   -2.3917    0.0000 C   0  0  0  0  0  0  0  0  0  0  0  0
   -0.3708    1.7333    0.0000 O   0  0  0  0  0  0  0  0  0  0  0  0
    3.9292   -2.3917    0.0000 C   0  0  0  0  0  0  0  0  0  0  0  0
   -0.3500   -2.4000    0.0000 O   0  0  0  0  0  0  0  0  0  0  0  0
    3.9292   -3.2167    0.0000 C   0  0  0  0  0  0  0  0  0  0  0  0
    6.0667   -1.9667    0.0000 C   0  0  0  0  0  0  0  0  0  0  0  0
    4.6417   -3.6250    0.0000 C   0  0  0  0  0  0  0  0  0  0  0  0
    6.0750   -3.6167    0.0000 C   0  0  0  0  0  0  0  0  0  0  0  0
   -0.3708   -0.7417    0.0000 C   0  0  0  0  0  0  0  0  0  0  0  0
   -1.0833    1.3208    0.0000 C   0  0  0  0  0  0  0  0  0  0  0  0
   -0.3500   -3.2250    0.0000 C   0  0  0  0  0  0  0  0  0  0  0  0
  2  1  1  0  0  0  0
  3  1  1  0  0  0  0
  4  2  1  0  0  0  0
  5  4  1  0  0  0  0
  6  3  2  0  0  0  0
  7  5  1  0  0  0  0
  8  7  1  0  0  0  0
  9  1  2  0  0  0  0
 10  1  2  0  0  0  0
 11  8  1  0  0  0  0
 12  6  1  0  0  0  0
 12 14  2  0  0  0  0
 13  2  1  0  0  0  0
 14 18  1  0  0  0  0
 15  3  1  0  0  0  0
 16  5  2  0  0  0  0
 17 11  2  0  0  0  0
 18 15  2  0  0  0  0
 19 13  2  0  0  0  0
 20 13  1  0  0  0  0
 21 24  1  0  0  0  0
 21 23  2  0  0  0  0
 22 12  1  0  0  0  0
 23 19  1  0  0  0  0
 24 20  2  0  0  0  0
 25 14  1  0  0  0  0
 26  8  2  0  0  0  0
 27 21  1  0  0  0  0
 28 26  1  0  0  0  0
 29 11  1  0  0  0  0
 30 28  2  0  0  0  0
 30 17  1  0  0  0  0
 31 17  1  0  0  0  0
 32 22  1  0  0  0  0
 33 25  1  0  0  0  0
 34 27  1  0  0  0  0
M  END
>  <ID>
6509310

>  <Supplier>
ChemBridge

>  <clogP>
3.930000000000000e+000

>  <RB>
5

>  <tPSA>
9.417000000000000e+001

>  <Hacc>
6

>  <Hdon>
1

>  <LogSw>
-6.088000000000000e+000

>  <Group>
3

>  <Core>
084

$$$$
5658720
 OpenBabel03312015312D

 16 18  0  0  0  0  0  0  0  0999 V2000
   -1.0625    1.4208    0.0000 C   0  0  0  0  0  0  0  0  0  0  0  0
   -1.4458    1.9625    0.0000 N   0  0  0  0  0  0  0  0  0  0  0  0
   -0.4458    1.6458    0.0000 N   0  0  0  0  0  0  0  0  0  0  0  0
   -1.4458    0.9000    0.0000 N   0  0  0  0  0  0  0  0  0  0  0  0
   -1.0625    2.4833    0.0000 N   0  0  0  0  0  0  0  0  0  0  0  0
   -2.0625    1.7625    0.0000 C   0  0  0  0  0  0  0  0  0  0  0  0
   -2.0625    1.1000    0.0000 C   0  0  0  0  0  0  0  0  0  0  0  0
   -0.4458    2.2833    0.0000 C   0  0  0  0  0  0  0  0  0  0  0  0
   -2.1458   -0.7375    0.0000 N   0  0  0  0  0  0  0  0  0  0  0  0
   -1.7000   -0.2375    0.0000 C   0  0  0  0  0  0  0  0  0  0  0  0
   -1.2458    0.2458    0.0000 C   0  0  0  0  0  0  0  0  0  0  0  0
   -2.6458    2.0833    0.0000 C   0  0  0  0  0  0  0  0  0  0  0  0
   -2.6458    0.7625    0.0000 C   0  0  0  0  0  0  0  0  0  0  0  0
    0.1167    2.6625    0.0000 C   0  0  0  0  0  0  0  0  0  0  0  0
   -3.2000    1.7625    0.0000 C   0  0  0  0  0  0  0  0  0  0  0  0
   -3.2000    1.1000    0.0000 C   0  0  0  0  0  0  0  0  0  0  0  0
  2  1  1  0  0  0  0
  3  1  2  0  0  0  0
  4  1  1  0  0  0  0
  5  2  1  0  0  0  0
  6  2  1  0  0  0  0
  6  7  2  0  0  0  0
  7  4  1  0  0  0  0
  8  3  1  0  0  0  0
  8  5  2  0  0  0  0
  9 10  3  0  0  0  0
 10 11  1  0  0  0  0
 11  4  1  0  0  0  0
 12  6  1  0  0  0  0
 13  7  1  0  0  0  0
 14  8  1  0  0  0  0
 15 12  2  0  0  0  0
 15 16  1  0  0  0  0
 16 13  2  0  0  0  0
M  END
>  <ID>
5658720

>  <Supplier>
ChemBridge

>  <clogP>
1.400000000000000e+000

>  <RB>
1

>  <tPSA>
5.891000000000000e+001

>  <Hacc>
5

>  <Hdon>
0

>  <LogSw>
-3.311999999999999e+000

>  <Group>
3

>  <Core>
130

$$$$
5658721
 OpenBabel03312015312D

 37 40  0  0  0  0  0  0  0  0999 V2000
   -1.4625    0.1208    0.0000 C   0  0  0  0  0  0  0  0  0  0  0  0
   -1.4833   -0.5500    0.0000 C   0  0  0  0  0  0  0  0  0  0  0  0
   -0.8625    1.1208    0.0000 S   0  0  0  0  0  0  0  0  0  0  0  0
   -2.1000    0.3208    0.0000 C   0  0  0  0  0  0  0  0  0  0  0  0
   -2.4833   -0.2042    0.0000 N   0  0  0  0  0  0  0  0  0  0  0  0
   -0.8833    0.4625    0.0000 N   0  0  0  0  0  0  0  0  0  0  0  0
   -2.1000   -0.7500    0.0000 N   0  0  0  0  0  0  0  0  0  0  0  0
   -0.3000    0.1208    0.0000 C   0  0  0  0  0  0  0  0  0  0  0  0
    0.3000    0.4458    0.0000 C   0  0  0  0  0  0  0  0  0  0  0  0
   -0.1833    1.1000    0.0000 O   0  0  0  0  0  0  0  0  0  0  0  0
   -1.5208    1.1458    0.0000 O   0  0  0  0  0  0  0  0  0  0  0  0
   -0.8458    1.8000    0.0000 C   0  0  0  0  0  0  0  0  0  0  0  0
   -0.9458   -0.9667    0.0000 O   0  0  0  0  0  0  0  0  0  0  0  0
   -2.3000   -1.3667    0.0000 C   0  0  0  0  0  0  0  0  0  0  0  0
    0.8667    0.1208    0.0000 N   0  0  0  0  0  0  0  0  0  0  0  0
    0.3000    1.1208    0.0000 O   0  0  0  0  0  0  0  0  0  0  0  0
   -3.1458   -0.2292    0.0000 C   0  0  0  0  0  0  0  0  0  0  0  0
   -2.3208    0.9833    0.0000 C   0  0  0  0  0  0  0  0  0  0  0  0
    1.4292    0.4625    0.0000 C   0  0  0  0  0  0  0  0  0  0  0  0
    1.4167    1.1208    0.0000 C   0  0  0  0  0  0  0  0  0  0  0  0
    1.4042    2.4583    0.0000 C   0  0  0  0  0  0  0  0  0  0  0  0
    0.8500    1.4500    0.0000 C   0  0  0  0  0  0  0  0  0  0  0  0
    2.0000    1.4625    0.0000 C   0  0  0  0  0  0  0  0  0  0  0  0
    0.8500    2.1208    0.0000 C   0  0  0  0  0  0  0  0  0  0  0  0
    1.9792    2.1208    0.0000 C   0  0  0  0  0  0  0  0  0  0  0  0
    1.4000    3.1208    0.0000 O   0  0  0  0  0  0  0  0  0  0  0  0
   -0.2625    2.1208    0.0000 C   0  0  0  0  0  0  0  0  0  0  0  0
   -1.4000    2.1458    0.0000 C   0  0  0  0  0  0  0  0  0  0  0  0
   -2.9625   -1.5292    0.0000 C   0  0  0  0  0  0  0  0  0  0  0  0
   -1.8625   -1.8667    0.0000 C   0  0  0  0  0  0  0  0  0  0  0  0
    2.0000    3.4708    0.0000 C   0  0  0  0  0  0  0  0  0  0  0  0
   -1.4000    2.7833    0.0000 C   0  0  0  0  0  0  0  0  0  0  0  0
   -3.1625   -2.1500    0.0000 C   0  0  0  0  0  0  0  0  0  0  0  0
   -2.0833   -2.5000    0.0000 C   0  0  0  0  0  0  0  0  0  0  0  0
   -0.2625    2.8000    0.0000 C   0  0  0  0  0  0  0  0  0  0  0  0
   -2.7000   -2.6500    0.0000 C   0  0  0  0  0  0  0  0  0  0  0  0
   -0.8458    3.1208    0.0000 C   0  0  0  0  0  0  0  0  0  0  0  0
  2  1  1  0  0  0  0
  3  6  1  0  0  0  0
  4  1  2  0  0  0  0
  5  4  1  0  0  0  0
  6  1  1  0  0  0  0
  7  2  1  0  0  0  0
  7  5  1  0  0  0  0
  8  6  1  0  0  0  0
  9  8  1  0  0  0  0
 10  3  2  0  0  0  0
 11  3  2  0  0  0  0
 12  3  1  0  0  0  0
 13  2  2  0  0  0  0
 14  7  1  0  0  0  0
 15  9  1  0  0  0  0
 16  9  2  0  0  0  0
 17  5  1  0  0  0  0
 18  4  1  0  0  0  0
 19 15  1  0  0  0  0
 20 19  1  0  0  0  0
 21 25  2  0  0  0  0
 22 20  1  0  0  0  0
 23 20  2  0  0  0  0
 24 22  2  0  0  0  0
 24 21  1  0  0  0  0
 25 23  1  0  0  0  0
 26 21  1  0  0  0  0
 27 12  1  0  0  0  0
 28 12  2  0  0  0  0
 29 14  1  0  0  0  0
 30 14  2  0  0  0  0
 31 26  1  0  0  0  0
 32 28  1  0  0  0  0
 33 29  2  0  0  0  0
 33 36  1  0  0  0  0
 34 30  1  0  0  0  0
 35 27  2  0  0  0  0
 35 37  1  0  0  0  0
 36 34  2  0  0  0  0
 37 32  2  0  0  0  0
M  END
>  <ID>
5658721

>  <Supplier>
ChemBridge

>  <clogP>
5.230000000000000e+000

>  <RB>
7

>  <tPSA>
1.026400000000000e+002

>  <Hacc>
5

>  <Hdon>
1

>  <LogSw>
-7.460000000000000e+000

>  <Group>
1

>  <Core>
084

$$$$
5658722
 OpenBabel03312015312D

 25 27  0  0  0  0  0  0  0  0999 V2000
    9.8167    1.4833    0.0000 C   0  0  0  0  0  0  0  0  0  0  0  0
   10.5667    1.4833    0.0000 C   0  0  0  0  0  0  0  0  0  0  0  0
    8.3167    2.7833    0.0000 N   0  3  0  0  0  0  0  0  0  0  0  0
   10.9500    0.8458    0.0000 N   0  0  0  0  0  0  0  0  0  0  0  0
    9.4500    2.1333    0.0000 C   0  0  0  0  0  0  0  0  0  0  0  0
   11.7000   -0.4500    0.0000 N   0  0  0  0  0  0  0  0  0  0  0  0
    8.7000    2.1333    0.0000 C   0  0  0  0  0  0  0  0  0  0  0  0
    9.4500    0.8458    0.0000 C   0  0  0  0  0  0  0  0  0  0  0  0
    8.7000    3.4333    0.0000 O   0  5  0  0  0  0  0  0  0  0  0  0
   12.0792   -1.1000    0.0000 C   0  0  0  0  0  0  0  0  0  0  0  0
    7.5667    2.7833    0.0000 O   0  0  0  0  0  0  0  0  0  0  0  0
   10.9500    2.1333    0.0000 O   0  0  0  0  0  0  0  0  0  0  0  0
   11.7000    0.8458    0.0000 C   0  0  0  0  0  0  0  0  0  0  0  0
   10.5792    0.1833    0.0000 C   0  0  0  0  0  0  0  0  0  0  0  0
   12.0792    0.1958    0.0000 C   0  0  0  0  0  0  0  0  0  0  0  0
   10.9500   -0.4500    0.0000 C   0  0  0  0  0  0  0  0  0  0  0  0
    8.3167    1.4833    0.0000 C   0  0  0  0  0  0  0  0  0  0  0  0
    8.7000    0.8458    0.0000 C   0  0  0  0  0  0  0  0  0  0  0  0
   11.7042   -1.7500    0.0000 C   0  0  0  0  0  0  0  0  0  0  0  0
   12.8292   -1.0792    0.0000 C   0  0  0  0  0  0  0  0  0  0  0  0
    9.8167    0.1958    0.0000 Cl  0  0  0  0  0  0  0  0  0  0  0  0
   12.8500   -2.3792    0.0000 C   0  0  0  0  0  0  0  0  0  0  0  0
   13.2000   -1.7292    0.0000 C   0  0  0  0  0  0  0  0  0  0  0  0
   12.1000   -2.3792    0.0000 C   0  0  0  0  0  0  0  0  0  0  0  0
   13.2167   -3.0292    0.0000 F   0  0  0  0  0  0  0  0  0  0  0  0
  2  1  1  0  0  0  0
  3  7  1  0  0  0  0
  4  2  1  0  0  0  0
  5  1  2  0  0  0  0
  6 16  1  0  0  0  0
  6 15  1  0  0  0  0
  7  5  1  0  0  0  0
  7 17  2  0  0  0  0
  8  1  1  0  0  0  0
  9  3  1  0  0  0  0
 10  6  1  0  0  0  0
 11  3  2  0  0  0  0
 12  2  2  0  0  0  0
 13  4  1  0  0  0  0
 14  4  1  0  0  0  0
 15 13  1  0  0  0  0
 16 14  1  0  0  0  0
 17 18  1  0  0  0  0
 18  8  2  0  0  0  0
 19 10  2  0  0  0  0
 20 10  1  0  0  0  0
 21  8  1  0  0  0  0
 22 23  1  0  0  0  0
 23 20  2  0  0  0  0
 24 19  1  0  0  0  0
 24 22  2  0  0  0  0
 25 22  1  0  0  0  0
M  CHG  2   3   1   9  -1
M  END
>  <ID>
5658722

>  <Supplier>
ChemBridge

>  <clogP>
2.900000000000000e+000

>  <RB>
2

>  <tPSA>
6.669000000000000e+001

>  <Hacc>
3

>  <Hdon>
0

>  <LogSw>
-4.719000000000000e+000

>  <Group>
1

>  <Core>
158

$$$$
6157584
 OpenBabel03312015312D

 21 22  0  0  0  0  0  0  0  0999 V2000
    3.7375    0.3000    0.0000 C   0  0  0  0  0  0  0  0  0  0  0  0
    4.4500   -0.9167    0.0000 C   0  0  0  0  0  0  0  0  0  0  0  0
    4.4500    0.7208    0.0000 O   0  0  0  0  0  0  0  0  0  0  0  0
    5.1542    0.3000    0.0000 C   0  0  0  0  0  0  0  0  0  0  0  0
    3.7375   -0.5042    0.0000 C   0  0  0  0  0  0  0  0  0  0  0  0
    5.1542   -0.5042    0.0000 C   0  0  0  0  0  0  0  0  0  0  0  0
    0.1500    0.7125    0.0000 C   0  0  0  0  0  0  0  0  0  0  0  0
    3.0167    0.7208    0.0000 C   0  0  0  0  0  0  0  0  0  0  0  0
    3.0167   -0.9167    0.0000 C   0  0  0  0  0  0  0  0  0  0  0  0
   -0.5500    0.3000    0.0000 N   0  0  0  0  0  0  0  0  0  0  0  0
    5.8875    0.7208    0.0000 O   0  0  0  0  0  0  0  0  0  0  0  0
    0.8667    0.3000    0.0000 C   0  0  0  0  0  0  0  0  0  0  0  0
    0.1500    1.5458    0.0000 O   0  0  0  0  0  0  0  0  0  0  0  0
    2.3042    0.3000    0.0000 C   0  0  0  0  0  0  0  0  0  0  0  0
    1.5875    0.7208    0.0000 O   0  0  0  0  0  0  0  0  0  0  0  0
    2.3042   -0.5042    0.0000 C   0  0  0  0  0  0  0  0  0  0  0  0
    4.4500   -1.7500    0.0000 C   0  0  0  0  0  0  0  0  0  0  0  0
   -0.5500   -0.5167    0.0000 C   0  0  0  0  0  0  0  0  0  0  0  0
   -1.2708    0.7125    0.0000 C   0  0  0  0  0  0  0  0  0  0  0  0
    5.1542   -2.1542    0.0000 C   0  0  0  0  0  0  0  0  0  0  0  0
    5.1542   -2.9875    0.0000 C   0  0  0  0  0  0  0  0  0  0  0  0
  2  5  1  0  0  0  0
  3  1  1  0  0  0  0
  4  3  1  0  0  0  0
  4  6  1  0  0  0  0
  5  1  1  0  0  0  0
  6  2  2  0  0  0  0
  7 12  1  0  0  0  0
  8  1  2  0  0  0  0
  9  5  2  0  0  0  0
 10  7  1  0  0  0  0
 11  4  2  0  0  0  0
 12 15  1  0  0  0  0
 13  7  2  0  0  0  0
 14  8  1  0  0  0  0
 15 14  1  0  0  0  0
 16 14  2  0  0  0  0
 16  9  1  0  0  0  0
 17  2  1  0  0  0  0
 18 10  1  0  0  0  0
 19 10  1  0  0  0  0
 20 17  1  0  0  0  0
 21 20  1  0  0  0  0
M  END
>  <ID>
6157584

>  <Supplier>
ChemBridge

>  <clogP>
2.480000000000000e+000

>  <RB>
3

>  <tPSA>
5.975000000000001e+001

>  <Hacc>
4

>  <Hdon>
0

>  <LogSw>
-3.428000000000000e+000

>  <Group>
2

>  <Core>
075

$$$$
9110691
 OpenBabel03312015312D

 26 28  0  0  0  0  0  0  0  0999 V2000
    1.6667    1.5208    0.0000 N   0  0  0  0  0  0  0  0  0  0  0  0
    0.4792    1.2625    0.0000 C   0  0  0  0  0  0  0  0  0  0  0  0
    1.5917    0.7708    0.0000 N   0  0  0  0  0  0  0  0  0  0  0  0
    0.9875    1.8208    0.0000 C   0  0  0  0  0  0  0  0  0  0  0  0
    0.8542    0.6125    0.0000 N   0  0  0  0  0  0  0  0  0  0  0  0
   -0.2625    1.3458    0.0000 C   0  0  0  0  0  0  0  0  0  0  0  0
    2.3167    1.8958    0.0000 C   0  0  0  0  0  0  0  0  0  0  0  0
   -0.5708    2.0333    0.0000 N   0  0  0  0  0  0  0  0  0  0  0  0
    2.9667    1.5208    0.0000 C   0  0  0  0  0  0  0  0  0  0  0  0
   -1.3125    2.1083    0.0000 C   0  0  0  0  0  0  0  0  0  0  0  0
   -0.7083    0.7333    0.0000 O   0  0  0  0  0  0  0  0  0  0  0  0
    3.6167    1.8958    0.0000 C   0  0  0  0  0  0  0  0  0  0  0  0
   -1.6208    2.7958    0.0000 C   0  0  0  0  0  0  0  0  0  0  0  0
   -1.7583    1.5000    0.0000 C   0  0  0  0  0  0  0  0  0  0  0  0
    0.8292    2.5583    0.0000 C   0  0  0  0  0  0  0  0  0  0  0  0
    4.2667    1.5208    0.0000 Cl  0  0  0  0  0  0  0  0  0  0  0  0
    2.3167    2.6458    0.0000 C   0  0  0  0  0  0  0  0  0  0  0  0
    2.9667    0.7708    0.0000 C   0  0  0  0  0  0  0  0  0  0  0  0
    2.9667    3.0208    0.0000 C   0  0  0  0  0  0  0  0  0  0  0  0
   -2.8083    2.2708    0.0000 C   0  0  0  0  0  0  0  0  0  0  0  0
    3.6167    2.6458    0.0000 C   0  0  0  0  0  0  0  0  0  0  0  0
   -2.3625    2.8708    0.0000 C   0  0  0  0  0  0  0  0  0  0  0  0
   -2.5000    1.5833    0.0000 C   0  0  0  0  0  0  0  0  0  0  0  0
   -1.4500    0.8125    0.0000 C   0  0  0  0  0  0  0  0  0  0  0  0
   -1.1750    3.3958    0.0000 C   0  0  0  0  0  0  0  0  0  0  0  0
   -1.8875    0.2083    0.0000 C   0  0  0  0  0  0  0  0  0  0  0  0
  2  4  2  0  0  0  0
  2  5  1  0  0  0  0
  3  1  1  0  0  0  0
  4  1  1  0  0  0  0
  5  3  2  0  0  0  0
  6  2  1  0  0  0  0
  7  1  1  0  0  0  0
  8  6  1  0  0  0  0
  9  7  2  0  0  0  0
 10  8  1  0  0  0  0
 11  6  2  0  0  0  0
 12  9  1  0  0  0  0
 13 10  1  0  0  0  0
 14 10  2  0  0  0  0
 15  4  1  0  0  0  0
 16 12  1  0  0  0  0
 17  7  1  0  0  0  0
 18  9  1  0  0  0  0
 19 17  2  0  0  0  0
 20 23  2  0  0  0  0
 21 19  1  0  0  0  0
 21 12  2  0  0  0  0
 22 13  2  0  0  0  0
 22 20  1  0  0  0  0
 23 14  1  0  0  0  0
 24 14  1  0  0  0  0
 25 13  1  0  0  0  0
 26 24  1  0  0  0  0
M  END
>  <ID>
9110691

>  <Supplier>
ChemBridge

>  <clogP>
3.897000000000000e+000

>  <RB>
3

>  <tPSA>
5.981000000000002e+001

>  <Hacc>
3

>  <Hdon>
1

>  <LogSw>
-5.217000000000000e+000

>  <Group>
2

>  <Core>
121

$$$$
9110692
 OpenBabel03312015312D

 22 23  0  0  0  0  0  0  0  0999 V2000
    4.3792    2.9333    0.0000 C   0  0  0  0  0  0  0  0  0  0  0  0
    4.7542    3.5833    0.0000 C   0  0  0  0  0  0  0  0  0  0  0  0
    3.6292    2.9333    0.0000 N   0  0  0  0  0  0  0  0  0  0  0  0
    4.7542    2.2833    0.0000 O   0  0  0  0  0  0  0  0  0  0  0  0
    5.5042    3.5833    0.0000 C   0  0  0  0  0  0  0  0  0  0  0  0
    3.2542    2.2833    0.0000 C   0  0  0  0  0  0  0  0  0  0  0  0
    2.5042    2.2833    0.0000 C   0  0  0  0  0  0  0  0  0  0  0  0
    4.3792    4.2167    0.0000 C   0  0  0  0  0  0  0  0  0  0  0  0
    2.1292    1.6333    0.0000 C   0  0  0  0  0  0  0  0  0  0  0  0
    5.8792    2.9333    0.0000 O   0  0  0  0  0  0  0  0  0  0  0  0
    3.2542    0.9833    0.0000 C   0  0  0  0  0  0  0  0  0  0  0  0
    7.7542    2.2833    0.0000 O   0  0  0  0  0  0  0  0  0  0  0  0
    3.6292    1.6333    0.0000 C   0  0  0  0  0  0  0  0  0  0  0  0
    5.8792    4.2167    0.0000 C   0  0  0  0  0  0  0  0  0  0  0  0
    2.5042    0.9833    0.0000 C   0  0  0  0  0  0  0  0  0  0  0  0
    6.6292    2.9333    0.0000 C   0  0  0  0  0  0  0  0  0  0  0  0
    7.0042    2.2833    0.0000 C   0  0  0  0  0  0  0  0  0  0  0  0
    8.1292    1.6333    0.0000 C   0  0  0  0  0  0  0  0  0  0  0  0
    1.3792    1.6333    0.0000 C   0  0  0  0  0  0  0  0  0  0  0  0
    4.7542    4.8750    0.0000 C   0  0  0  0  0  0  0  0  0  0  0  0
    8.8792    1.6333    0.0000 C   0  0  0  0  0  0  0  0  0  0  0  0
    5.5042    4.8750    0.0000 C   0  0  0  0  0  0  0  0  0  0  0  0
  2  1  1  0  0  0  0
  3  1  1  0  0  0  0
  4  1  2  0  0  0  0
  5  2  1  0  0  0  0
  6  3  1  0  0  0  0
  7  6  1  0  0  0  0
  8  2  2  0  0  0  0
  9  7  2  0  0  0  0
 10  5  1  0  0  0  0
 11 13  1  0  0  0  0
 12 17  1  0  0  0  0
 13  6  2  0  0  0  0
 14  5  2  0  0  0  0
 14 22  1  0  0  0  0
 15 11  2  0  0  0  0
 15  9  1  0  0  0  0
 16 10  1  0  0  0  0
 17 16  1  0  0  0  0
 18 12  1  0  0  0  0
 19  9  1  0  0  0  0
 20  8  1  0  0  0  0
 21 18  1  0  0  0  0
 22 20  2  0  0  0  0
M  END
>  <ID>
9110692

>  <Supplier>
ChemBridge

>  <clogP>
3.559000000000000e+000

>  <RB>
5

>  <tPSA>
4.756000000000000e+001

>  <Hacc>
3

>  <Hdon>
1

>  <LogSw>
-4.423000000000000e+000

>  <Group>
2

>  <Core>
511

$$$$
7478836
 OpenBabel03312015312D

 22 23  0  0  0  0  0  0  0  0999 V2000
    4.9125   -5.7417    0.0000 C   0  0  0  0  0  0  0  0  0  0  0  0
    4.9125   -6.5667    0.0000 C   0  0  0  0  0  0  0  0  0  0  0  0
    4.1917   -5.3292    0.0000 C   0  0  0  0  0  0  0  0  0  0  0  0
    7.7500   -9.0792    0.0000 N   0  3  0  0  0  0  0  0  0  0  0  0
    4.1917   -6.9792    0.0000 O   0  0  0  0  0  0  0  0  0  0  0  0
    3.4875   -6.5667    0.0000 C   0  0  0  0  0  0  0  0  0  0  0  0
    5.6250   -5.3292    0.0000 C   0  0  0  0  0  0  0  0  0  0  0  0
    3.4875   -5.7417    0.0000 C   0  0  0  0  0  0  0  0  0  0  0  0
    7.7625   -8.2500    0.0000 C   0  0  0  0  0  0  0  0  0  0  0  0
    7.0292   -9.4792    0.0000 O   0  5  0  0  0  0  0  0  0  0  0  0
    8.4625   -9.5042    0.0000 O   0  0  0  0  0  0  0  0  0  0  0  0
    6.3417   -5.7417    0.0000 O   0  0  0  0  0  0  0  0  0  0  0  0
    2.7750   -6.9792    0.0000 O   0  0  0  0  0  0  0  0  0  0  0  0
    5.6250   -4.5042    0.0000 O   0  0  0  0  0  0  0  0  0  0  0  0
    7.0417   -7.8250    0.0000 C   0  0  0  0  0  0  0  0  0  0  0  0
    6.3375   -6.5667    0.0000 C   0  0  0  0  0  0  0  0  0  0  0  0
    7.0625   -6.9917    0.0000 C   0  0  0  0  0  0  0  0  0  0  0  0
    5.6250   -6.9792    0.0000 C   0  0  0  0  0  0  0  0  0  0  0  0
    4.1917   -4.5042    0.0000 C   0  0  0  0  0  0  0  0  0  0  0  0
    8.4875   -7.8500    0.0000 C   0  0  0  0  0  0  0  0  0  0  0  0
    8.4917   -7.0167    0.0000 C   0  0  0  0  0  0  0  0  0  0  0  0
    7.7875   -6.5875    0.0000 C   0  0  0  0  0  0  0  0  0  0  0  0
  2  1  2  0  0  0  0
  3  1  1  0  0  0  0
  4  9  1  0  0  0  0
  5  2  1  0  0  0  0
  5  6  1  0  0  0  0
  6  8  1  0  0  0  0
  7  1  1  0  0  0  0
  8  3  2  0  0  0  0
  9 15  1  0  0  0  0
 10  4  1  0  0  0  0
 11  4  2  0  0  0  0
 12  7  1  0  0  0  0
 13  6  2  0  0  0  0
 14  7  2  0  0  0  0
 15 17  2  0  0  0  0
 16 12  1  0  0  0  0
 17 16  1  0  0  0  0
 18  2  1  0  0  0  0
 19  3  1  0  0  0  0
 20 21  1  0  0  0  0
 20  9  2  0  0  0  0
 21 22  2  0  0  0  0
 22 17  1  0  0  0  0
M  CHG  2   4   1  10  -1
M  END
>  <ID>
7478836

>  <Supplier>
ChemBridge

>  <clogP>
2.566000000000000e+000

>  <RB>
4

>  <tPSA>
9.965000000000005e+001

>  <Hacc>
6

>  <Hdon>
0

>  <LogSw>
-3.486000000000000e+000

>  <Group>
3

$$$$
9110694
 OpenBabel03312015312D

 24 25  0  0  0  0  0  0  0  0999 V2000
   -2.1375    2.6208    0.0000 C   0  0  0  0  0  0  0  0  0  0  0  0
   -2.8208    2.9250    0.0000 N   0  0  0  0  0  0  0  0  0  0  0  0
   -2.2208    1.8750    0.0000 N   0  0  0  0  0  0  0  0  0  0  0  0
    2.4042    2.9958    0.0000 C   0  0  0  0  0  0  0  0  0  0  0  0
    3.0542    2.6208    0.0000 N   0  0  0  0  0  0  0  0  0  0  0  0
   -1.4875    2.9958    0.0000 S   0  0  0  0  0  0  0  0  0  0  0  0
    1.7542    2.6208    0.0000 C   0  0  0  0  0  0  0  0  0  0  0  0
   -2.9500    1.7208    0.0000 C   0  0  0  0  0  0  0  0  0  0  0  0
   -0.1875    2.9958    0.0000 C   0  0  0  0  0  0  0  0  0  0  0  0
    3.0542    1.8708    0.0000 C   0  0  0  0  0  0  0  0  0  0  0  0
    0.4625    2.6208    0.0000 N   0  0  0  0  0  0  0  0  0  0  0  0
   -3.3250    2.3708    0.0000 C   0  0  0  0  0  0  0  0  0  0  0  0
    1.1125    2.9958    0.0000 C   0  0  0  0  0  0  0  0  0  0  0  0
    2.4042    3.7458    0.0000 C   0  0  0  0  0  0  0  0  0  0  0  0
   -0.1875    3.7458    0.0000 O   0  0  0  0  0  0  0  0  0  0  0  0
    2.4042    1.4958    0.0000 O   0  0  0  0  0  0  0  0  0  0  0  0
   -0.8375    2.6208    0.0000 C   0  0  0  0  0  0  0  0  0  0  0  0
    1.7542    4.1167    0.0000 C   0  0  0  0  0  0  0  0  0  0  0  0
    1.1125    3.7458    0.0000 C   0  0  0  0  0  0  0  0  0  0  0  0
    3.0542    4.1167    0.0000 O   0  0  0  0  0  0  0  0  0  0  0  0
   -2.9833    3.6708    0.0000 C   0  0  0  0  0  0  0  0  0  0  0  0
    3.7042    1.4958    0.0000 C   0  0  0  0  0  0  0  0  0  0  0  0
    3.0542    4.8667    0.0000 C   0  0  0  0  0  0  0  0  0  0  0  0
    3.7042    0.7458    0.0000 C   0  0  0  0  0  0  0  0  0  0  0  0
  2  1  1  0  0  0  0
  3  1  2  0  0  0  0
  4  7  1  0  0  0  0
  5  4  1  0  0  0  0
  6  1  1  0  0  0  0
  7 13  2  0  0  0  0
  8  3  1  0  0  0  0
  8 12  2  0  0  0  0
  9 17  1  0  0  0  0
 10  5  1  0  0  0  0
 11  9  1  0  0  0  0
 12  2  1  0  0  0  0
 13 11  1  0  0  0  0
 14 18  1  0  0  0  0
 14  4  2  0  0  0  0
 15  9  2  0  0  0  0
 16 10  2  0  0  0  0
 17  6  1  0  0  0  0
 18 19  2  0  0  0  0
 19 13  1  0  0  0  0
 20 14  1  0  0  0  0
 21  2  1  0  0  0  0
 22 10  1  0  0  0  0
 23 20  1  0  0  0  0
 24 22  1  0  0  0  0
M  END
>  <ID>
9110694

>  <Supplier>
ChemBridge

>  <clogP>
7.510000000000000e-001

>  <RB>
5

>  <tPSA>
8.525000000000000e+001

>  <Hacc>
4

>  <Hdon>
2

>  <LogSw>
-2.382000000000000e+000

>  <Group>
2

$$$$
5834050
 OpenBabel03312015312D

 41 46  0  0  0  0  0  0  0  0999 V2000
    2.4292    0.2208    0.0000 N   0  0  0  0  0  0  0  0  0  0  0  0
    2.4750   -0.6000    0.0000 C   0  0  0  0  0  0  0  0  0  0  0  0
    3.7917    0.2208    0.0000 C   0  0  0  0  0  0  0  0  0  0  0  0
    3.1125    0.6250    0.0000 C   0  0  3  0  0  0  0  0  0  0  0  0
    1.6750    0.4375    0.0000 C   0  0  0  0  0  0  0  0  0  0  0  0
    3.1125   -1.0042    0.0000 N   0  0  0  0  0  0  0  0  0  0  0  0
    1.2417   -0.2417    0.0000 C   0  0  0  0  0  0  0  0  0  0  0  0
    3.7792   -0.6000    0.0000 C   0  0  0  0  0  0  0  0  0  0  0  0
    1.7292   -0.8917    0.0000 S   0  0  0  0  0  0  0  0  0  0  0  0
    0.0917   -5.5792    0.0000 N   0  3  0  0  0  0  0  0  0  0  0  0
   -0.2208   -2.3000    0.0000 C   0  0  0  0  0  0  0  0  0  0  0  0
    0.4667   -0.2875    0.0000 C   0  0  0  0  0  0  0  0  0  0  0  0
    3.1000    1.9875    0.0000 C   0  0  0  0  0  0  0  0  0  0  0  0
    0.3750   -1.7542    0.0000 O   0  0  0  0  0  0  0  0  0  0  0  0
    0.0625   -1.0000    0.0000 C   0  0  0  0  0  0  0  0  0  0  0  0
    4.4667    0.6250    0.0000 C   0  0  0  0  0  0  0  0  0  0  0  0
   -0.1458   -3.1292    0.0000 C   0  0  0  0  0  0  0  0  0  0  0  0
    0.0042   -4.7667    0.0000 C   0  0  0  0  0  0  0  0  0  0  0  0
   -0.8958   -1.8792    0.0000 C   0  0  0  0  0  0  0  0  0  0  0  0
   -0.7833   -3.6000    0.0000 C   0  0  0  0  0  0  0  0  0  0  0  0
    3.7792    2.3958    0.0000 C   0  0  0  0  0  0  0  0  0  0  0  0
    3.7792    3.2083    0.0000 C   0  0  0  0  0  0  0  0  0  0  0  0
   -0.7208   -1.0792    0.0000 C   0  0  0  0  0  0  0  0  0  0  0  0
   -0.7083   -4.4292    0.0000 C   0  0  0  0  0  0  0  0  0  0  0  0
    0.5667   -3.4542    0.0000 C   0  0  0  0  0  0  0  0  0  0  0  0
   -0.5458   -6.0625    0.0000 O   0  5  0  0  0  0  0  0  0  0  0  0
    3.1000    3.6125    0.0000 C   0  0  0  0  0  0  0  0  0  0  0  0
    1.2542    1.2000    0.0000 O   0  0  0  0  0  0  0  0  0  0  0  0
    4.3750    3.7333    0.0000 O   0  0  0  0  0  0  0  0  0  0  0  0
    0.8125   -5.9167    0.0000 O   0  0  0  0  0  0  0  0  0  0  0  0
    3.2792    4.3792    0.0000 O   0  0  0  0  0  0  0  0  0  0  0  0
    2.4167    2.3958    0.0000 C   0  0  0  0  0  0  0  0  0  0  0  0
    4.0667    4.4500    0.0000 C   0  0  0  0  0  0  0  0  0  0  0  0
    0.6500   -4.2792    0.0000 C   0  0  0  0  0  0  0  0  0  0  0  0
    4.4667    1.4458    0.0000 O   0  0  0  0  0  0  0  0  0  0  0  0
    2.4167    3.2083    0.0000 C   0  0  0  0  0  0  0  0  0  0  0  0
    5.1375    0.2208    0.0000 O   0  0  0  0  0  0  0  0  0  0  0  0
    4.4667   -1.0042    0.0000 C   0  0  0  0  0  0  0  0  0  0  0  0
   -1.4958   -3.2750    0.0000 C   0  0  0  0  0  0  0  0  0  0  0  0
    5.8250    0.6250    0.0000 C   0  0  0  0  0  0  0  0  0  0  0  0
    6.5042    0.2208    0.0000 C   0  0  0  0  0  0  0  0  0  0  0  0
  2  1  1  0  0  0  0
  3  4  1  0  0  0  0
  4  1  1  0  0  0  0
  5  1  1  0  0  0  0
  6  2  2  0  0  0  0
  6  8  1  0  0  0  0
  7  5  1  0  0  0  0
  7  9  1  0  0  0  0
  8  3  2  0  0  0  0
  9  2  1  0  0  0  0
 10 18  1  0  0  0  0
 11 14  1  0  0  0  0
 12  7  2  0  0  0  0
 13  4  1  0  0  0  0
 14 15  1  0  0  0  0
 15 12  1  0  0  0  0
 16  3  1  0  0  0  0
 17 11  1  0  0  0  0
 18 34  1  0  0  0  0
 19 23  1  0  0  0  0
 19 11  2  0  0  0  0
 20 17  2  0  0  0  0
 21 13  2  0  0  0  0
 22 21  1  0  0  0  0
 22 27  2  0  0  0  0
 23 15  2  0  0  0  0
 24 20  1  0  0  0  0
 24 18  2  0  0  0  0
 25 17  1  0  0  0  0
 26 10  1  0  0  0  0
 27 36  1  0  0  0  0
 28  5  2  0  0  0  0
 29 22  1  0  0  0  0
 30 10  2  0  0  0  0
 31 27  1  0  0  0  0
 32 13  1  0  0  0  0
 33 29  1  0  0  0  0
 33 31  1  0  0  0  0
 34 25  2  0  0  0  0
 35 16  2  0  0  0  0
 36 32  2  0  0  0  0
 37 16  1  0  0  0  0
 38  8  1  0  0  0  0
 39 20  1  0  0  0  0
 40 37  1  0  0  0  0
 41 40  1  0  0  0  0
M  CHG  2  10   1  26  -1
M  END
>  <ID>
5834050

>  <Supplier>
ChemBridge

>  <clogP>
6.500000000000000e+000

>  <RB>
4

>  <tPSA>
1.354000000000000e+002

>  <Hacc>
9

>  <Hdon>
0

>  <LogSw>
-9.321000000000000e+000

>  <Group>
1

>  <Core>
096

$$$$
9110696
 OpenBabel03312015312D

 23 24  0  0  0  0  0  0  0  0999 V2000
    6.3792    2.3333    0.0000 C   0  0  0  0  0  0  0  0  0  0  0  0
    2.6292    2.3333    0.0000 C   0  0  0  0  0  0  0  0  0  0  0  0
    3.0042    1.6750    0.0000 N   0  0  0  0  0  0  0  0  0  0  0  0
    6.0042    1.6750    0.0000 N   0  0  0  0  0  0  0  0  0  0  0  0
    3.7542    1.6750    0.0000 C   0  0  0  0  0  0  0  0  0  0  0  0
    7.1292    2.3333    0.0000 C   0  0  0  0  0  0  0  0  0  0  0  0
    4.1292    1.0250    0.0000 C   0  0  0  0  0  0  0  0  0  0  0  0
    5.2542    1.6750    0.0000 C   0  0  0  0  0  0  0  0  0  0  0  0
    4.8792    1.0250    0.0000 C   0  0  0  0  0  0  0  0  0  0  0  0
    6.0042    2.9833    0.0000 O   0  0  0  0  0  0  0  0  0  0  0  0
    3.0042    2.9833    0.0000 O   0  0  0  0  0  0  0  0  0  0  0  0
    1.8792    2.3333    0.0000 C   0  0  0  0  0  0  0  0  0  0  0  0
    4.1292    2.3333    0.0000 C   0  0  0  0  0  0  0  0  0  0  0  0
    4.8792    2.3333    0.0000 C   0  0  0  0  0  0  0  0  0  0  0  0
    7.3250    3.0500    0.0000 C   0  0  0  0  0  0  0  0  0  0  0  0
    7.0667    1.5833    0.0000 C   0  0  0  0  0  0  0  0  0  0  0  0
    7.8667    2.1958    0.0000 C   0  0  0  0  0  0  0  0  0  0  0  0
    3.7542    0.3750    0.0000 C   0  0  0  0  0  0  0  0  0  0  0  0
    1.5042    2.9833    0.0000 C   0  0  0  0  0  0  0  0  0  0  0  0
    1.5042    1.6750    0.0000 C   0  0  0  0  0  0  0  0  0  0  0  0
    0.7542    1.6750    0.0000 C   0  0  0  0  0  0  0  0  0  0  0  0
    0.7542    2.9833    0.0000 C   0  0  0  0  0  0  0  0  0  0  0  0
    0.3792    2.3333    0.0000 C   0  0  0  0  0  0  0  0  0  0  0  0
  2  3  1  0  0  0  0
  3  5  1  0  0  0  0
  4  1  1  0  0  0  0
  5 13  1  0  0  0  0
  5  7  2  0  0  0  0
  6  1  1  0  0  0  0
  7  9  1  0  0  0  0
  8  4  1  0  0  0  0
  9  8  2  0  0  0  0
 10  1  2  0  0  0  0
 11  2  2  0  0  0  0
 12  2  1  0  0  0  0
 13 14  2  0  0  0  0
 14  8  1  0  0  0  0
 15  6  1  0  0  0  0
 16  6  1  0  0  0  0
 17  6  1  0  0  0  0
 18  7  1  0  0  0  0
 19 12  2  0  0  0  0
 20 12  1  0  0  0  0
 21 20  2  0  0  0  0
 22 19  1  0  0  0  0
 23 21  1  0  0  0  0
 23 22  2  0  0  0  0
M  END
>  <ID>
9110696

>  <Supplier>
ChemBridge

>  <clogP>
2.755000000000000e+000

>  <RB>
4

>  <tPSA>
5.820000000000000e+001

>  <Hacc>
2

>  <Hdon>
2

>  <LogSw>
-3.815999999999999e+000

>  <Group>
2

>  <Core>
157

$$$$
9026733
 OpenBabel03312015312D

 22 23  0  0  0  0  0  0  0  0999 V2000
    4.9792    2.5833    0.0000 C   0  0  0  0  0  0  0  0  0  0  0  0
    1.2292    1.2833    0.0000 C   0  0  0  0  0  0  0  0  0  0  0  0
    1.6042    1.9333    0.0000 N   0  0  0  0  0  0  0  0  0  0  0  0
    4.6042    1.9333    0.0000 O   0  0  0  0  0  0  0  0  0  0  0  0
    4.6042    3.2333    0.0000 O   0  0  0  0  0  0  0  0  0  0  0  0
    0.4792    1.2833    0.0000 O   0  0  0  0  0  0  0  0  0  0  0  0
    6.1042    3.2333    0.0000 O   0  0  0  0  0  0  0  0  0  0  0  0
    2.3542    1.9333    0.0000 C   0  0  0  0  0  0  0  0  0  0  0  0
    5.7292    2.5833    0.0000 C   0  0  0  0  0  0  0  0  0  0  0  0
    3.8542    1.9333    0.0000 C   0  0  0  0  0  0  0  0  0  0  0  0
    6.8542    3.2333    0.0000 C   0  0  0  0  0  0  0  0  0  0  0  0
    7.2292    2.5833    0.0000 C   0  0  0  0  0  0  0  0  0  0  0  0
    2.7292    2.5833    0.0000 C   0  0  0  0  0  0  0  0  0  0  0  0
    2.7292    1.2833    0.0000 C   0  0  0  0  0  0  0  0  0  0  0  0
    3.4792    1.2833    0.0000 C   0  0  0  0  0  0  0  0  0  0  0  0
    3.4792    2.5833    0.0000 C   0  0  0  0  0  0  0  0  0  0  0  0
    7.9792    2.5833    0.0000 C   0  0  0  0  0  0  0  0  0  0  0  0
    7.9792    3.8833    0.0000 C   0  0  0  0  0  0  0  0  0  0  0  0
    1.6042    0.6333    0.0000 C   0  0  0  0  0  0  0  0  0  0  0  0
    7.2292    3.8833    0.0000 C   0  0  0  0  0  0  0  0  0  0  0  0
    8.3542    3.2333    0.0000 C   0  0  0  0  0  0  0  0  0  0  0  0
    8.3542    1.9333    0.0000 C   0  0  0  0  0  0  0  0  0  0  0  0
  2  3  1  0  0  0  0
  3  8  1  0  0  0  0
  4  1  1  0  0  0  0
  5  1  2  0  0  0  0
  6  2  2  0  0  0  0
  7  9  1  0  0  0  0
  8 13  2  0  0  0  0
  9  1  1  0  0  0  0
 10  4  1  0  0  0  0
 11  7  1  0  0  0  0
 12 11  2  0  0  0  0
 13 16  1  0  0  0  0
 14 15  2  0  0  0  0
 14  8  1  0  0  0  0
 15 10  1  0  0  0  0
 16 10  2  0  0  0  0
 17 12  1  0  0  0  0
 18 20  2  0  0  0  0
 19  2  1  0  0  0  0
 20 11  1  0  0  0  0
 21 18  1  0  0  0  0
 21 17  2  0  0  0  0
 22 17  1  0  0  0  0
M  END
>  <ID>
9026733

>  <Supplier>
ChemBridge

>  <clogP>
2.603000000000000e+000

>  <RB>
6

>  <tPSA>
6.463000000000000e+001

>  <Hacc>
4

>  <Hdon>
1

>  <LogSw>
-3.606000000000000e+000

>  <Group>
1

>  <Core>
314

$$$$
5358506
 OpenBabel03312015312D

 14 14  0  0  0  0  0  0  0  0999 V2000
   -3.9208    0.6333    0.0000 N   0  3  0  0  0  0  0  0  0  0  0  0
   -2.6833   -0.0875    0.0000 C   0  0  0  0  0  0  0  0  0  0  0  0
    3.4292    0.6000    0.0000 C   0  0  0  0  0  0  0  0  0  0  0  0
    2.2042   -0.1042    0.0000 C   0  0  0  0  0  0  0  0  0  0  0  0
   -3.9208    2.0333    0.0000 O   0  5  0  0  0  0  0  0  0  0  0  0
   -5.1458   -0.1042    0.0000 O   0  0  0  0  0  0  0  0  0  0  0  0
    0.9875    0.6333    0.0000 C   0  0  0  0  0  0  0  0  0  0  0  0
   -1.4708    0.6333    0.0000 C   0  0  0  0  0  0  0  0  0  0  0  0
    3.4292    2.0208    0.0000 O   0  0  0  0  0  0  0  0  0  0  0  0
   -0.2500   -0.0875    0.0000 C   0  0  0  0  0  0  0  0  0  0  0  0
    4.6375   -0.1042    0.0000 N   0  0  0  0  0  0  0  0  0  0  0  0
   -2.6833   -1.5000    0.0000 C   0  0  0  0  0  0  0  0  0  0  0  0
   -1.4708   -2.2042    0.0000 C   0  0  0  0  0  0  0  0  0  0  0  0
   -0.2500   -1.5000    0.0000 C   0  0  0  0  0  0  0  0  0  0  0  0
  2  1  1  0  0  0  0
  3  4  1  0  0  0  0
  4  7  2  0  0  0  0
  5  1  1  0  0  0  0
  6  1  2  0  0  0  0
  7 10  1  0  0  0  0
  8  2  1  0  0  0  0
  9  3  2  0  0  0  0
 10  8  2  0  0  0  0
 11  3  1  0  0  0  0
 12  2  2  0  0  0  0
 13 12  1  0  0  0  0
 14 13  2  0  0  0  0
 14 10  1  0  0  0  0
M  CHG  2   1   1   5  -1
M  END
>  <ID>
5358506

>  <Supplier>
ChemBridge

>  <clogP>
1.320000000000000e+000

>  <RB>
2

>  <tPSA>
8.623000000000002e+001

>  <Hacc>
3

>  <Hdon>
1

>  <LogSw>
-2.120000000000000e+000

>  <Group>
1

>  <Core>
435

$$$$
5358504
 OpenBabel03312015312D

 27 28  0  0  0  0  0  0  0  0999 V2000
   -2.8708    0.7000    0.0000 C   0  0  0  0  0  0  0  0  0  0  0  0
   -1.6708    0.6208    0.0000 C   0  0  0  0  0  0  0  0  0  0  0  0
   -4.2208    0.7458    0.0000 C   0  0  0  0  0  0  0  0  0  0  0  0
   -0.5000    0.4625    0.0000 C   0  0  0  0  0  0  0  0  0  0  0  0
   -2.2500    0.7000    0.0000 C   0  0  0  0  0  0  0  0  0  0  0  0
   -3.9000    0.1208    0.0000 C   0  0  0  0  0  0  0  0  0  0  0  0
   -0.8625    0.0000    0.0000 C   0  0  0  0  0  0  0  0  0  0  0  0
   -3.8833    1.3125    0.0000 C   0  0  0  0  0  0  0  0  0  0  0  0
   -0.7333    1.0125    0.0000 C   0  0  0  0  0  0  0  0  0  0  0  0
   -4.7083    0.7458    0.0000 N   0  0  0  0  0  0  0  0  0  0  0  0
    0.1167    0.3500    0.0000 N   0  0  0  0  0  0  0  0  0  0  0  0
   -3.2125    1.2958    0.0000 C   0  0  0  0  0  0  0  0  0  0  0  0
   -1.4500    0.0708    0.0000 C   0  0  0  0  0  0  0  0  0  0  0  0
   -1.3125    1.0833    0.0000 C   0  0  0  0  0  0  0  0  0  0  0  0
   -3.2333    0.1000    0.0000 C   0  0  0  0  0  0  0  0  0  0  0  0
   -5.0625    0.3708    0.0000 C   0  0  0  0  0  0  0  0  0  0  0  0
    0.5875    0.7625    0.0000 C   0  0  0  0  0  0  0  0  0  0  0  0
   -5.0458   -0.0292    0.0000 O   0  0  0  0  0  0  0  0  0  0  0  0
    0.4542    1.2125    0.0000 O   0  0  0  0  0  0  0  0  0  0  0  0
   -2.2500    0.1458    0.0000 C   0  0  0  0  0  0  0  0  0  0  0  0
   -2.2708    1.3500    0.0000 C   0  0  0  0  0  0  0  0  0  0  0  0
   -0.5958   -0.3875    0.0000 C   0  0  0  0  0  0  0  0  0  0  0  0
   -4.1208    1.7208    0.0000 C   0  0  0  0  0  0  0  0  0  0  0  0
   -4.2208   -0.2042    0.0000 C   0  0  0  0  0  0  0  0  0  0  0  0
   -0.2125    1.4458    0.0000 C   0  0  0  0  0  0  0  0  0  0  0  0
    1.4000    0.4333    0.0000 C   0  0  0  0  0  0  0  0  0  0  0  0
   -5.5333    0.7458    0.0000 C   0  0  0  0  0  0  0  0  0  0  0  0
  2  5  1  0  0  0  0
  3  6  1  0  0  0  0
  3  8  2  0  0  0  0
  4  9  1  0  0  0  0
  4  7  2  0  0  0  0
  5  1  1  0  0  0  0
  6 15  2  0  0  0  0
  7 13  1  0  0  0  0
  8 12  1  0  0  0  0
  9 14  2  0  0  0  0
 10  3  1  0  0  0  0
 11  4  1  0  0  0  0
 12  1  2  0  0  0  0
 13  2  2  0  0  0  0
 14  2  1  0  0  0  0
 15  1  1  0  0  0  0
 16 10  1  0  0  0  0
 17 11  1  0  0  0  0
 18 16  2  0  0  0  0
 19 17  2  0  0  0  0
 20  5  1  0  0  0  0
 21  5  1  0  0  0  0
 22  7  1  0  0  0  0
 23  8  1  0  0  0  0
 24  6  1  0  0  0  0
 25  9  1  0  0  0  0
 26 17  1  0  0  0  0
 27 16  1  0  0  0  0
M  END
>  <ID>
5358504

>  <Supplier>
ChemBridge

>  <clogP>
2.440000000000000e+000

>  <RB>
4

>  <tPSA>
5.820000000000000e+001

>  <Hacc>
2

>  <Hdon>
2

>  <LogSw>
-3.956000000000000e+000

>  <Group>
3

$$$$
7408401
 OpenBabel03312015312D

 32 35  0  0  0  0  0  0  0  0999 V2000
    8.4542   -2.2292    0.0000 N   0  0  0  0  0  0  0  0  0  0  0  0
    7.0250   -2.2292    0.0000 C   0  0  0  0  0  0  0  0  0  0  0  0
    7.7375   -1.8167    0.0000 C   0  0  0  0  0  0  0  0  0  0  0  0
    8.4542   -3.0542    0.0000 C   0  0  0  0  0  0  0  0  0  0  0  0
    7.7417   -3.4667    0.0000 N   0  0  0  0  0  0  0  0  0  0  0  0
    7.0250   -3.0625    0.0000 C   0  0  0  0  0  0  0  0  0  0  0  0
    6.3042   -1.8250    0.0000 C   0  0  0  0  0  0  0  0  0  0  0  0
    9.1667   -1.8042    0.0000 C   0  0  0  0  0  0  0  0  0  0  0  0
    9.1792   -3.4667    0.0000 O   0  0  0  0  0  0  0  0  0  0  0  0
    7.7292   -0.9875    0.0000 O   0  0  0  0  0  0  0  0  0  0  0  0
    6.3042   -3.4750    0.0000 O   0  0  0  0  0  0  0  0  0  0  0  0
    3.4500   -3.4792    0.0000 S   0  0  0  0  0  0  0  0  0  0  0  0
    5.5917   -2.2417    0.0000 C   0  0  0  0  0  0  0  0  0  0  0  0
    9.1625   -0.9792    0.0000 C   0  0  0  0  0  0  0  0  0  0  0  0
    9.8875   -2.2167    0.0000 C   0  0  0  0  0  0  0  0  0  0  0  0
    4.1667   -3.0667    0.0000 C   0  0  0  0  0  0  0  0  0  0  0  0
    2.7375   -3.0667    0.0000 C   0  0  0  0  0  0  0  0  0  0  0  0
    1.3125   -2.2417    0.0000 C   0  0  0  0  0  0  0  0  0  0  0  0
   10.6000   -0.9667    0.0000 C   0  0  0  0  0  0  0  0  0  0  0  0
    9.8792   -0.5542    0.0000 C   0  0  0  0  0  0  0  0  0  0  0  0
   10.6042   -1.8000    0.0000 C   0  0  0  0  0  0  0  0  0  0  0  0
    0.6000   -1.8292    0.0000 Cl  0  0  0  0  0  0  0  0  0  0  0  0
    5.5917   -3.0667    0.0000 C   0  0  0  0  0  0  0  0  0  0  0  0
    4.8792   -1.8292    0.0000 C   0  0  0  0  0  0  0  0  0  0  0  0
    4.8792   -3.4792    0.0000 C   0  0  0  0  0  0  0  0  0  0  0  0
    2.7417   -2.2417    0.0000 C   0  0  0  0  0  0  0  0  0  0  0  0
    4.1667   -2.2417    0.0000 C   0  0  0  0  0  0  0  0  0  0  0  0
    2.0292   -3.4792    0.0000 C   0  0  0  0  0  0  0  0  0  0  0  0
    1.3167   -3.0750    0.0000 C   0  0  0  0  0  0  0  0  0  0  0  0
    2.0292   -1.8292    0.0000 C   0  0  0  0  0  0  0  0  0  0  0  0
   11.3167   -0.5542    0.0000 O   0  0  0  0  0  0  0  0  0  0  0  0
   11.3042    0.2708    0.0000 C   0  0  0  0  0  0  0  0  0  0  0  0
  2  3  1  0  0  0  0
  2  6  1  0  0  0  0
  3  1  1  0  0  0  0
  4  1  1  0  0  0  0
  5  4  1  0  0  0  0
  6  5  1  0  0  0  0
  7  2  2  0  0  0  0
  8  1  1  0  0  0  0
  9  4  2  0  0  0  0
 10  3  2  0  0  0  0
 11  6  2  0  0  0  0
 12 16  1  0  0  0  0
 13  7  1  0  0  0  0
 14  8  1  0  0  0  0
 15  8  2  0  0  0  0
 16 27  2  0  0  0  0
 16 25  1  0  0  0  0
 17 12  1  0  0  0  0
 18 29  1  0  0  0  0
 19 21  2  0  0  0  0
 19 20  1  0  0  0  0
 20 14  2  0  0  0  0
 21 15  1  0  0  0  0
 22 18  1  0  0  0  0
 23 13  1  0  0  0  0
 24 13  2  0  0  0  0
 25 23  2  0  0  0  0
 26 17  2  0  0  0  0
 27 24  1  0  0  0  0
 28 17  1  0  0  0  0
 29 28  2  0  0  0  0
 30 26  1  0  0  0  0
 30 18  2  0  0  0  0
 31 19  1  0  0  0  0
 32 31  1  0  0  0  0
M  END
>  <ID>
7408401

>  <Supplier>
ChemBridge

>  <clogP>
5.073000000000000e+000

>  <RB>
4

>  <tPSA>
7.570999999999999e+001

>  <Hacc>
4

>  <Hdon>
1

>  <LogSw>
-6.708000000000000e+000

>  <Group>
1

>  <Core>
006

$$$$
7408402
 OpenBabel03312015312D

 30 33  0  0  0  0  0  0  0  0999 V2000
    0.8792   -0.8375    0.0000 C   0  0  0  0  0  0  0  0  0  0  0  0
   -0.0333   -0.5500    0.0000 C   0  0  0  0  0  0  0  0  0  0  0  0
    1.1792   -1.7542    0.0000 C   0  0  0  0  0  0  0  0  0  0  0  0
   -0.7708   -1.1167    0.0000 N   0  0  0  0  0  0  0  0  0  0  0  0
    2.1667   -1.7542    0.0000 N   0  0  0  0  0  0  0  0  0  0  0  0
   -1.5833   -0.5500    0.0000 C   0  0  0  0  0  0  0  0  0  0  0  0
   -1.2833    0.3625    0.0000 N   0  0  0  0  0  0  0  0  0  0  0  0
   -0.3125    0.3458    0.0000 O   0  0  0  0  0  0  0  0  0  0  0  0
    0.5875   -2.5167    0.0000 C   0  0  0  0  0  0  0  0  0  0  0  0
    2.4417   -0.8500    0.0000 O   0  0  0  0  0  0  0  0  0  0  0  0
    1.6875   -0.2542    0.0000 C   0  0  0  0  0  0  0  0  0  0  0  0
   -2.4958   -0.8375    0.0000 C   0  0  0  0  0  0  0  0  0  0  0  0
   -4.2958   -1.4500    0.0000 C   0  0  0  0  0  0  0  0  0  0  0  0
   -3.5708   -2.0667    0.0000 C   0  0  0  0  0  0  0  0  0  0  0  0
   -4.1000   -0.5167    0.0000 C   0  0  0  0  0  0  0  0  0  0  0  0
   -2.6625   -1.7500    0.0000 C   0  0  0  0  0  0  0  0  0  0  0  0
   -3.2208   -0.2042    0.0000 C   0  0  0  0  0  0  0  0  0  0  0  0
    0.9542   -3.4000    0.0000 C   0  0  0  0  0  0  0  0  0  0  0  0
   -5.1958   -1.7500    0.0000 O   0  0  0  0  0  0  0  0  0  0  0  0
   -4.8125    0.1208    0.0000 O   0  0  0  0  0  0  0  0  0  0  0  0
   -3.7625   -3.0042    0.0000 O   0  0  0  0  0  0  0  0  0  0  0  0
    1.9167   -3.5000    0.0000 Cl  0  0  0  0  0  0  0  0  0  0  0  0
   -0.3958   -2.4167    0.0000 C   0  0  0  0  0  0  0  0  0  0  0  0
    1.7375    0.6958    0.0000 C   0  0  0  0  0  0  0  0  0  0  0  0
    0.3875   -4.1875    0.0000 C   0  0  0  0  0  0  0  0  0  0  0  0
   -5.3833   -2.6792    0.0000 C   0  0  0  0  0  0  0  0  0  0  0  0
   -4.6208    1.0500    0.0000 C   0  0  0  0  0  0  0  0  0  0  0  0
   -4.6625   -3.3042    0.0000 C   0  0  0  0  0  0  0  0  0  0  0  0
   -0.9458   -3.1875    0.0000 C   0  0  0  0  0  0  0  0  0  0  0  0
   -0.5625   -4.0792    0.0000 C   0  0  0  0  0  0  0  0  0  0  0  0
  2  1  1  0  0  0  0
  3  1  1  0  0  0  0
  4  2  2  0  0  0  0
  5  3  2  0  0  0  0
  6  4  1  0  0  0  0
  7  8  1  0  0  0  0
  7  6  2  0  0  0  0
  8  2  1  0  0  0  0
  9  3  1  0  0  0  0
 10 11  1  0  0  0  0
 10  5  1  0  0  0  0
 11  1  2  0  0  0  0
 12  6  1  0  0  0  0
 13 15  2  0  0  0  0
 13 14  1  0  0  0  0
 14 16  2  0  0  0  0
 15 17  1  0  0  0  0
 16 12  1  0  0  0  0
 17 12  2  0  0  0  0
 18  9  1  0  0  0  0
 19 13  1  0  0  0  0
 20 15  1  0  0  0  0
 21 14  1  0  0  0  0
 22 18  1  0  0  0  0
 23  9  2  0  0  0  0
 24 11  1  0  0  0  0
 25 18  2  0  0  0  0
 25 30  1  0  0  0  0
 26 19  1  0  0  0  0
 27 20  1  0  0  0  0
 28 21  1  0  0  0  0
 29 23  1  0  0  0  0
 30 29  2  0  0  0  0
M  END
>  <ID>
7408402

>  <Supplier>
ChemBridge

>  <clogP>
3.176000000000000e+000

>  <RB>
3

>  <tPSA>
9.264000000000002e+001

>  <Hacc>
8

>  <Hdon>
0

>  <LogSw>
-5.682000000000000e+000

>  <Group>
3

>  <Core>
206

$$$$
7408406
 OpenBabel03312015312D

 25 27  0  0  0  0  0  0  0  0999 V2000
    2.9917    0.3583    0.0000 C   0  0  0  0  0  0  0  0  0  0  0  0
    3.0792   -0.4542    0.0000 N   0  0  0  0  0  0  0  0  0  0  0  0
    3.7417    0.7000    0.0000 N   0  0  0  0  0  0  0  0  0  0  0  0
    3.8875   -0.6292    0.0000 C   0  0  0  0  0  0  0  0  0  0  0  0
    2.2792    0.7708    0.0000 C   0  0  0  0  0  0  0  0  0  0  0  0
    4.3000    0.0875    0.0000 N   0  0  0  0  0  0  0  0  0  0  0  0
    2.6042   -3.6417    0.0000 C   0  0  0  0  0  0  0  0  0  0  0  0
    2.2667   -2.8917    0.0000 N   0  0  0  0  0  0  0  0  0  0  0  0
    1.5625    0.3583    0.0000 C   0  0  0  0  0  0  0  0  0  0  0  0
    3.4167   -3.8000    0.0000 N   0  0  0  0  0  0  0  0  0  0  0  0
    4.2250   -1.3792    0.0000 S   0  0  0  0  0  0  0  0  0  0  0  0
    2.1917   -4.3542    0.0000 S   0  0  0  0  0  0  0  0  0  0  0  0
    2.7417   -2.2167    0.0000 C   0  0  0  0  0  0  0  0  0  0  0  0
    2.2792    1.6000    0.0000 C   0  0  0  0  0  0  0  0  0  0  0  0
    0.8500    0.7708    0.0000 C   0  0  0  0  0  0  0  0  0  0  0  0
    3.5000   -4.6167    0.0000 C   0  0  0  0  0  0  0  0  0  0  0  0
    2.7667   -4.9625    0.0000 C   0  0  0  0  0  0  0  0  0  0  0  0
    2.3917   -1.4625    0.0000 O   0  0  0  0  0  0  0  0  0  0  0  0
    3.5625   -2.2917    0.0000 C   0  0  0  0  0  0  0  0  0  0  0  0
    2.4625   -1.0042    0.0000 C   0  0  0  0  0  0  0  0  0  0  0  0
    0.8500    1.6000    0.0000 C   0  0  0  0  0  0  0  0  0  0  0  0
    1.5542   -0.4667    0.0000 Cl  0  0  0  0  0  0  0  0  0  0  0  0
    1.5625    2.0208    0.0000 C   0  0  0  0  0  0  0  0  0  0  0  0
    0.1292    2.0083    0.0000 Cl  0  0  0  0  0  0  0  0  0  0  0  0
    2.6292   -1.8125    0.0000 C   0  0  0  0  0  0  0  0  0  0  0  0
  2  1  1  0  0  0  0
  3  1  2  0  0  0  0
  4  2  1  0  0  0  0
  5  1  1  0  0  0  0
  6  3  1  0  0  0  0
  6  4  2  0  0  0  0
  7  8  1  0  0  0  0
  8 13  1  0  0  0  0
  9  5  2  0  0  0  0
 10  7  2  0  0  0  0
 11  4  1  0  0  0  0
 12  7  1  0  0  0  0
 13 19  1  0  0  0  0
 14  5  1  0  0  0  0
 15  9  1  0  0  0  0
 15 21  2  0  0  0  0
 16 10  1  0  0  0  0
 17 12  1  0  0  0  0
 17 16  2  0  0  0  0
 18 13  2  0  0  0  0
 19 11  1  0  0  0  0
 20  2  1  0  0  0  0
 21 23  1  0  0  0  0
 22  9  1  0  0  0  0
 23 14  2  0  0  0  0
 24 21  1  0  0  0  0
 25 20  1  0  0  0  0
M  END
>  <ID>
7408406

>  <Supplier>
ChemBridge

>  <clogP>
3.180000000000000e+000

>  <RB>
5

>  <tPSA>
7.270000000000000e+001

>  <Hacc>
5

>  <Hdon>
1

>  <LogSw>
-6.053999999999999e+000

>  <Group>
2

>  <Core>
009

$$$$
9026735
 OpenBabel03312015312D

 22 25  0  0  0  0  0  0  0  0999 V2000
    2.5792    1.5708    0.0000 N   0  0  0  0  0  0  0  0  0  0  0  0
    4.4042    0.8000    0.0000 N   0  0  0  0  0  0  0  0  0  0  0  0
    1.9667    2.6208    0.0000 N   0  0  0  0  0  0  0  0  0  0  0  0
    2.6542    2.3208    0.0000 C   0  0  0  0  0  0  0  0  0  0  0  0
    3.8500    1.3000    0.0000 C   0  0  0  0  0  0  0  0  0  0  0  0
    3.1375    1.0708    0.0000 C   0  0  0  0  0  0  0  0  0  0  0  0
    1.8417    1.4125    0.0000 C   0  0  0  0  0  0  0  0  0  0  0  0
    1.4667    2.0625    0.0000 C   0  0  0  0  0  0  0  0  0  0  0  0
    5.1417    0.9583    0.0000 C   0  0  0  0  0  0  0  0  0  0  0  0
    4.3292    0.0583    0.0000 C   0  0  0  0  0  0  0  0  0  0  0  0
    5.5167    0.3083    0.0000 C   0  0  0  0  0  0  0  0  0  0  0  0
    4.0042    2.0333    0.0000 O   0  0  0  0  0  0  0  0  0  0  0  0
    5.0125   -0.2542    0.0000 C   0  0  0  0  0  0  0  0  0  0  0  0
    3.3042    2.6958    0.0000 C   0  0  0  0  0  0  0  0  0  0  0  0
    1.4667    0.7625    0.0000 C   0  0  0  0  0  0  0  0  0  0  0  0
    5.5167    1.6083    0.0000 C   0  0  0  0  0  0  0  0  0  0  0  0
    0.7167    2.0625    0.0000 C   0  0  0  0  0  0  0  0  0  0  0  0
    6.2667    0.3083    0.0000 C   0  0  0  0  0  0  0  0  0  0  0  0
    0.7167    0.7625    0.0000 C   0  0  0  0  0  0  0  0  0  0  0  0
    6.2667    1.6083    0.0000 C   0  0  0  0  0  0  0  0  0  0  0  0
    0.3417    1.4125    0.0000 C   0  0  0  0  0  0  0  0  0  0  0  0
    6.6417    0.9583    0.0000 C   0  0  0  0  0  0  0  0  0  0  0  0
  2  5  1  0  0  0  0
  3  4  2  0  0  0  0
  3  8  1  0  0  0  0
  4  1  1  0  0  0  0
  5  6  1  0  0  0  0
  6  1  1  0  0  0  0
  7  1  1  0  0  0  0
  8  7  1  0  0  0  0
  9  2  1  0  0  0  0
 10  2  1  0  0  0  0
 11  9  1  0  0  0  0
 12  5  2  0  0  0  0
 13 10  1  0  0  0  0
 13 11  1  0  0  0  0
 14  4  1  0  0  0  0
 15  7  2  0  0  0  0
 16  9  2  0  0  0  0
 17  8  2  0  0  0  0
 17 21  1  0  0  0  0
 18 11  2  0  0  0  0
 18 22  1  0  0  0  0
 19 15  1  0  0  0  0
 20 16  1  0  0  0  0
 21 19  2  0  0  0  0
 22 20  2  0  0  0  0
M  END
>  <ID>
9026735

>  <Supplier>
ChemBridge

>  <clogP>
3.080000000000000e+000

>  <RB>
2

>  <tPSA>
3.813000000000000e+001

>  <Hacc>
2

>  <Hdon>
0

>  <LogSw>
-3.955000000000000e+000

>  <Group>
3

>  <Core>
457

$$$$
5549829
 OpenBabel03312015312D

 32 35  0  0  0  0  0  0  0  0999 V2000
    1.9667   -2.9375    0.0000 S   0  0  0  0  0  0  0  0  0  0  0  0
    1.9667   -2.1875    0.0000 N   0  0  0  0  0  0  0  0  0  0  0  0
    1.3167   -1.8042    0.0000 C   0  0  0  0  0  0  0  0  0  0  0  0
    2.6167   -1.8042    0.0000 C   0  0  0  0  0  0  0  0  0  0  0  0
    3.2792   -2.1875    0.0000 C   0  0  0  0  0  0  0  0  0  0  0  0
    5.8792   -2.2000    0.0000 C   0  0  0  0  0  0  0  0  0  0  0  0
    2.1917   -3.7000    0.0000 O   0  0  0  0  0  0  0  0  0  0  0  0
    2.8167   -2.9375    0.0000 O   0  0  0  0  0  0  0  0  0  0  0  0
    1.3042   -3.3042    0.0000 C   0  0  0  0  0  0  0  0  0  0  0  0
    5.2292   -1.8167    0.0000 C   0  0  0  0  0  0  0  0  0  0  0  0
    3.9292   -1.8042    0.0000 N   0  0  0  0  0  0  0  0  0  0  0  0
    5.8792   -2.9500    0.0000 C   0  0  0  0  0  0  0  0  0  0  0  0
    1.3167   -1.0500    0.0000 C   0  0  0  0  0  0  0  0  0  0  0  0
    0.6667   -2.1792    0.0000 C   0  0  0  0  0  0  0  0  0  0  0  0
    4.5792   -2.1875    0.0000 C   0  0  0  0  0  0  0  0  0  0  0  0
    6.5292   -1.8167    0.0000 O   0  0  0  0  0  0  0  0  0  0  0  0
    6.5167   -3.3167    0.0000 O   0  0  0  0  0  0  0  0  0  0  0  0
    3.2667   -2.9375    0.0000 O   0  0  0  0  0  0  0  0  0  0  0  0
    0.6667   -0.6667    0.0000 C   0  0  0  0  0  0  0  0  0  0  0  0
    0.0167   -1.8042    0.0000 C   0  0  0  0  0  0  0  0  0  0  0  0
    5.2167   -3.3167    0.0000 C   0  0  0  0  0  0  0  0  0  0  0  0
    0.0167   -1.0500    0.0000 C   0  0  0  0  0  0  0  0  0  0  0  0
    4.5792   -2.9375    0.0000 C   0  0  0  0  0  0  0  0  0  0  0  0
    7.1792   -2.2000    0.0000 C   0  0  0  0  0  0  0  0  0  0  0  0
    7.1792   -2.9500    0.0000 C   0  0  0  0  0  0  0  0  0  0  0  0
    1.3042   -4.0542    0.0000 C   0  0  0  0  0  0  0  0  0  0  0  0
    0.6667   -2.9292    0.0000 C   0  0  0  0  0  0  0  0  0  0  0  0
   -0.6208   -2.1792    0.0000 C   0  0  0  0  0  0  0  0  0  0  0  0
    0.6542    0.0708    0.0000 C   0  0  0  0  0  0  0  0  0  0  0  0
    0.6667   -4.4292    0.0000 C   0  0  0  0  0  0  0  0  0  0  0  0
    0.0167   -3.3042    0.0000 C   0  0  0  0  0  0  0  0  0  0  0  0
    0.0167   -4.0542    0.0000 C   0  0  0  0  0  0  0  0  0  0  0  0
  2  1  1  0  0  0  0
  3  2  1  0  0  0  0
  4  2  1  0  0  0  0
  5  4  1  0  0  0  0
  6 10  2  0  0  0  0
  6 12  1  0  0  0  0
  7  1  2  0  0  0  0
  8  1  2  0  0  0  0
  9  1  1  0  0  0  0
 10 15  1  0  0  0  0
 11  5  1  0  0  0  0
 12 21  2  0  0  0  0
 13  3  2  0  0  0  0
 14  3  1  0  0  0  0
 15 11  1  0  0  0  0
 16  6  1  0  0  0  0
 17 12  1  0  0  0  0
 18  5  2  0  0  0  0
 19 13  1  0  0  0  0
 20 14  2  0  0  0  0
 21 23  1  0  0  0  0
 22 20  1  0  0  0  0
 22 19  2  0  0  0  0
 23 15  2  0  0  0  0
 24 16  1  0  0  0  0
 24 25  1  0  0  0  0
 25 17  1  0  0  0  0
 26  9  2  0  0  0  0
 27  9  1  0  0  0  0
 28 20  1  0  0  0  0
 29 19  1  0  0  0  0
 30 26  1  0  0  0  0
 31 27  2  0  0  0  0
 32 31  1  0  0  0  0
 32 30  2  0  0  0  0
M  END
>  <ID>
5549829

>  <Supplier>
ChemBridge

>  <clogP>
4.750000000000000e+000

>  <RB>
5

>  <tPSA>
8.494000000000000e+001

>  <Hacc>
5

>  <Hdon>
1

>  <LogSw>
-6.555000000000000e+000

>  <Group>
3

>  <Core>
084

$$$$
6681996
 OpenBabel03312015312D

 25 27  0  0  0  0  0  0  0  0999 V2000
   -1.6625    1.5458    0.0000 C   0  0  0  0  0  0  0  0  0  0  0  0
   -1.8208    2.0458    0.0000 C   0  0  0  0  0  0  0  0  0  0  0  0
   -2.0625    1.2458    0.0000 S   0  0  0  0  0  0  0  0  0  0  0  0
   -2.3208    2.0458    0.0000 C   0  0  0  0  0  0  0  0  0  0  0  0
   -2.4833    1.5458    0.0000 C   0  0  0  0  0  0  0  0  0  0  0  0
   -1.1458    1.3625    0.0000 N   0  0  0  0  0  0  0  0  0  0  0  0
   -1.5000    2.4833    0.0000 C   0  0  0  0  0  0  0  0  0  0  0  0
   -1.0458    0.8458    0.0000 C   0  0  0  0  0  0  0  0  0  0  0  0
    0.0500   -0.0500    0.0000 N   0  0  0  0  0  0  0  0  0  0  0  0
   -0.5458    0.6625    0.0000 C   0  0  0  0  0  0  0  0  0  0  0  0
   -1.7458    2.9625    0.0000 O   0  0  0  0  0  0  0  0  0  0  0  0
   -1.4458    0.5000    0.0000 O   0  0  0  0  0  0  0  0  0  0  0  0
   -0.4458    0.1208    0.0000 C   0  0  0  0  0  0  0  0  0  0  0  0
    0.4500    0.2833    0.0000 C   0  0  0  0  0  0  0  0  0  0  0  0
    0.1500   -0.5500    0.0000 C   0  0  0  0  0  0  0  0  0  0  0  0
   -0.9833    2.4458    0.0000 O   0  0  0  0  0  0  0  0  0  0  0  0
   -2.6833    2.4208    0.0000 C   0  0  0  0  0  0  0  0  0  0  0  0
   -3.0000    1.4208    0.0000 C   0  0  0  0  0  0  0  0  0  0  0  0
    0.6292   -0.7500    0.0000 C   0  0  0  0  0  0  0  0  0  0  0  0
    0.9500    0.1208    0.0000 C   0  0  0  0  0  0  0  0  0  0  0  0
    1.0500   -0.4000    0.0000 C   0  0  0  0  0  0  0  0  0  0  0  0
   -0.7625    1.9625    0.0000 C   0  0  0  0  0  0  0  0  0  0  0  0
    1.5667   -0.5292    0.0000 C   0  0  0  0  0  0  0  0  0  0  0  0
   -3.1833    2.3000    0.0000 C   0  0  0  0  0  0  0  0  0  0  0  0
   -3.3458    1.8000    0.0000 C   0  0  0  0  0  0  0  0  0  0  0  0
  2  1  2  0  0  0  0
  3  1  1  0  0  0  0
  4  2  1  0  0  0  0
  5  3  1  0  0  0  0
  5  4  2  0  0  0  0
  6  1  1  0  0  0  0
  7  2  1  0  0  0  0
  8  6  1  0  0  0  0
  9 13  1  0  0  0  0
 10  8  1  0  0  0  0
 11  7  2  0  0  0  0
 12  8  2  0  0  0  0
 13 10  1  0  0  0  0
 14  9  1  0  0  0  0
 15  9  1  0  0  0  0
 16  7  1  0  0  0  0
 17  4  1  0  0  0  0
 18  5  1  0  0  0  0
 19 15  1  0  0  0  0
 20 14  1  0  0  0  0
 20 21  1  0  0  0  0
 21 19  1  0  0  0  0
 22 16  1  0  0  0  0
 23 21  1  0  0  0  0
 24 17  1  0  0  0  0
 25 18  1  0  0  0  0
 25 24  1  0  0  0  0
M  END
>  <ID>
6681996

>  <Supplier>
ChemBridge

>  <clogP>
4.970000000000002e+000

>  <RB>
5

>  <tPSA>
5.863999999999998e+001

>  <Hacc>
4

>  <Hdon>
1

>  <LogSw>
-6.101999999999999e+000

>  <Group>
3

>  <Core>
098

$$$$
7296112
 OpenBabel03312015312D

 24 26  0  0  0  0  0  0  0  0999 V2000
    2.2292   -2.4792    0.0000 C   0  0  0  0  0  0  0  0  0  0  0  0
    2.6917   -1.6625    0.0000 C   0  0  0  0  0  0  0  0  0  0  0  0
    6.5000   -3.2792    0.0000 C   0  0  0  0  0  0  0  0  0  0  0  0
    6.9792   -4.0917    0.0000 N   0  0  0  0  0  0  0  0  0  0  0  0
    2.7125   -3.2917    0.0000 N   0  0  0  0  0  0  0  0  0  0  0  0
    5.5542   -3.2792    0.0000 C   0  0  0  0  0  0  0  0  0  0  0  0
    2.2167   -0.8542    0.0000 C   0  0  0  0  0  0  0  0  0  0  0  0
    1.2917   -2.4875    0.0000 O   0  0  0  0  0  0  0  0  0  0  0  0
    6.9667   -2.4500    0.0000 O   0  0  0  0  0  0  0  0  0  0  0  0
    3.6542   -3.2875    0.0000 C   0  0  0  0  0  0  0  0  0  0  0  0
    5.0792   -4.1042    0.0000 C   0  0  0  0  0  0  0  0  0  0  0  0
    5.0792   -2.4625    0.0000 C   0  0  0  0  0  0  0  0  0  0  0  0
    1.2792   -0.8625    0.0000 Cl  0  0  0  0  0  0  0  0  0  0  0  0
    4.1250   -2.4625    0.0000 C   0  0  0  0  0  0  0  0  0  0  0  0
    4.1292   -4.1125    0.0000 C   0  0  0  0  0  0  0  0  0  0  0  0
    3.6292   -1.6542    0.0000 C   0  0  0  0  0  0  0  0  0  0  0  0
    7.9292   -4.0917    0.0000 C   0  0  0  0  0  0  0  0  0  0  0  0
    6.5167   -4.9250    0.0000 C   0  0  0  0  0  0  0  0  0  0  0  0
    2.6792   -0.0417    0.0000 C   0  0  0  0  0  0  0  0  0  0  0  0
    4.0917   -0.8417    0.0000 C   0  0  0  0  0  0  0  0  0  0  0  0
    8.4042   -4.8917    0.0000 C   0  0  0  0  0  0  0  0  0  0  0  0
    6.9917   -5.7375    0.0000 C   0  0  0  0  0  0  0  0  0  0  0  0
    3.6167   -0.0292    0.0000 C   0  0  0  0  0  0  0  0  0  0  0  0
    7.9417   -5.7250    0.0000 C   0  0  0  0  0  0  0  0  0  0  0  0
  2  1  1  0  0  0  0
  3  6  1  0  0  0  0
  4  3  1  0  0  0  0
  5  1  1  0  0  0  0
  6 11  1  0  0  0  0
  6 12  2  0  0  0  0
  7  2  2  0  0  0  0
  8  1  2  0  0  0  0
  9  3  2  0  0  0  0
 10  5  1  0  0  0  0
 11 15  2  0  0  0  0
 12 14  1  0  0  0  0
 13  7  1  0  0  0  0
 14 10  2  0  0  0  0
 15 10  1  0  0  0  0
 16  2  1  0  0  0  0
 17  4  1  0  0  0  0
 18  4  1  0  0  0  0
 19  7  1  0  0  0  0
 20 16  2  0  0  0  0
 21 17  1  0  0  0  0
 22 18  1  0  0  0  0
 23 20  1  0  0  0  0
 23 19  2  0  0  0  0
 24 22  1  0  0  0  0
 24 21  1  0  0  0  0
M  END
>  <ID>
7296112

>  <Supplier>
ChemBridge

>  <clogP>
2.730000000000000e+000

>  <RB>
3

>  <tPSA>
4.941000000000002e+001

>  <Hacc>
2

>  <Hdon>
1

>  <LogSw>
-4.031000000000002e+000

>  <Group>
3

>  <Core>
150

$$$$
5971890
 OpenBabel03312015312D

 30 34  0  0  0  0  0  0  0  0999 V2000
    2.8292   -1.4042    0.0000 C   0  0  0  0  0  0  0  0  0  0  0  0
    2.4667   -0.6792    0.0000 C   0  0  0  0  0  0  0  0  0  0  0  0
    2.4792   -2.1542    0.0000 C   0  0  3  0  0  0  0  0  0  0  0  0
    1.6792   -2.3500    0.0000 N   0  0  0  0  0  0  0  0  0  0  0  0
    3.6500   -1.4542    0.0000 C   0  0  0  0  0  0  0  0  0  0  0  0
    1.6667   -0.4875    0.0000 N   0  0  0  0  0  0  0  0  0  0  0  0
    1.0167   -1.8375    0.0000 C   0  0  0  0  0  0  0  0  0  0  0  0
    2.9167    0.0000    0.0000 C   0  0  0  0  0  0  0  0  0  0  0  0
    3.7500   -0.0500    0.0000 C   0  0  3  0  0  0  0  0  0  0  0  0
    1.0167   -1.0000    0.0000 C   0  0  0  0  0  0  0  0  0  0  0  0
    4.1042   -0.7792    0.0000 C   0  0  0  0  0  0  0  0  0  0  0  0
    3.0000   -2.8042    0.0000 C   0  0  0  0  0  0  0  0  0  0  0  0
    4.2000    0.6333    0.0000 C   0  0  0  0  0  0  0  0  0  0  0  0
    4.0167   -2.2042    0.0000 O   0  0  0  0  0  0  0  0  0  0  0  0
    4.3292   -3.3042    0.0000 N   0  0  0  0  0  0  0  0  0  0  0  0
    3.8375    1.3708    0.0000 C   0  0  0  0  0  0  0  0  0  0  0  0
    5.0292    0.5708    0.0000 C   0  0  0  0  0  0  0  0  0  0  0  0
    5.1167    2.0000    0.0000 C   0  0  0  0  0  0  0  0  0  0  0  0
    5.4792    1.2625    0.0000 C   0  0  0  0  0  0  0  0  0  0  0  0
    4.2875    2.0500    0.0000 C   0  0  0  0  0  0  0  0  0  0  0  0
    3.8042   -2.6667    0.0000 C   0  0  0  0  0  0  0  0  0  0  0  0
    5.5792    2.6958    0.0000 O   0  0  0  0  0  0  0  0  0  0  0  0
    0.3000   -2.2542    0.0000 C   0  0  0  0  0  0  0  0  0  0  0  0
    0.3000   -0.5875    0.0000 C   0  0  0  0  0  0  0  0  0  0  0  0
    2.7000   -3.5667    0.0000 C   0  0  0  0  0  0  0  0  0  0  0  0
    4.0375   -4.0875    0.0000 C   0  0  0  0  0  0  0  0  0  0  0  0
    6.4000    2.6333    0.0000 C   0  0  0  0  0  0  0  0  0  0  0  0
    3.2167   -4.2167    0.0000 C   0  0  0  0  0  0  0  0  0  0  0  0
   -0.4000   -1.0042    0.0000 C   0  0  0  0  0  0  0  0  0  0  0  0
   -0.4125   -1.8375    0.0000 C   0  0  0  0  0  0  0  0  0  0  0  0
  2  1  2  0  0  0  0
  3  1  1  0  0  0  0
  4  3  1  0  0  0  0
  5  1  1  0  0  0  0
  6  2  1  0  0  0  0
  7  4  1  0  0  0  0
  8  2  1  0  0  0  0
  9 11  1  0  0  0  0
  9  8  1  0  0  0  0
 10  6  1  0  0  0  0
 10  7  1  0  0  0  0
 11  5  1  0  0  0  0
 12  3  1  0  0  0  0
 13  9  1  0  0  0  0
 14  5  2  0  0  0  0
 15 21  2  0  0  0  0
 15 26  1  0  0  0  0
 16 13  1  0  0  0  0
 17 13  2  0  0  0  0
 18 19  2  0  0  0  0
 19 17  1  0  0  0  0
 20 16  2  0  0  0  0
 20 18  1  0  0  0  0
 21 12  1  0  0  0  0
 22 18  1  0  0  0  0
 23  7  2  0  0  0  0
 24 10  2  0  0  0  0
 25 12  2  0  0  0  0
 26 28  2  0  0  0  0
 27 22  1  0  0  0  0
 28 25  1  0  0  0  0
 29 24  1  0  0  0  0
 29 30  2  0  0  0  0
 30 23  1  0  0  0  0
M  END
>  <ID>
5971890

>  <Supplier>
ChemBridge

>  <clogP>
2.530000000000000e+000

>  <RB>
2

>  <tPSA>
6.324999999999997e+001

>  <Hacc>
3

>  <Hdon>
2

>  <LogSw>
-2.958000000000000e+000

>  <Group>
3

>  <Core>
102

$$$$
6681992
 OpenBabel03312015312D

 31 33  0  0  0  0  0  0  0  0999 V2000
    5.2292   -3.0917    0.0000 S   0  0  0  0  0  0  0  0  0  0  0  0
    5.2250   -3.9250    0.0000 N   0  0  0  0  0  0  0  0  0  0  0  0
    5.9375   -4.3375    0.0000 C   0  0  0  0  0  0  0  0  0  0  0  0
    6.6542   -3.9292    0.0000 C   0  0  0  0  0  0  0  0  0  0  0  0
    5.2250   -2.2667    0.0000 C   0  0  0  0  0  0  0  0  0  0  0  0
   10.2500   -2.6875    0.0000 C   0  0  0  0  0  0  0  0  0  0  0  0
    4.4000   -3.0917    0.0000 O   0  0  0  0  0  0  0  0  0  0  0  0
    6.0542   -3.0917    0.0000 O   0  0  0  0  0  0  0  0  0  0  0  0
    7.3750   -4.3417    0.0000 N   0  0  0  0  0  0  0  0  0  0  0  0
    9.5292   -3.1000    0.0000 C   0  0  0  0  0  0  0  0  0  0  0  0
    4.5042   -4.3292    0.0000 C   0  0  0  0  0  0  0  0  0  0  0  0
    6.6625   -3.1000    0.0000 O   0  0  0  0  0  0  0  0  0  0  0  0
   10.2500   -1.8542    0.0000 O   0  0  0  0  0  0  0  0  0  0  0  0
    4.5042   -1.8542    0.0000 C   0  0  0  0  0  0  0  0  0  0  0  0
    5.9417   -1.8417    0.0000 C   0  0  0  0  0  0  0  0  0  0  0  0
    8.8125   -2.6875    0.0000 C   0  0  0  0  0  0  0  0  0  0  0  0
    9.5292   -3.9375    0.0000 C   0  0  0  0  0  0  0  0  0  0  0  0
    8.0917   -3.9292    0.0000 C   0  0  0  0  0  0  0  0  0  0  0  0
    5.2167   -0.6042    0.0000 C   0  0  0  0  0  0  0  0  0  0  0  0
   10.9667   -3.1000    0.0000 O   0  0  0  0  0  0  0  0  0  0  0  0
    8.8125   -4.3500    0.0000 C   0  0  0  0  0  0  0  0  0  0  0  0
    8.1000   -3.1042    0.0000 C   0  0  0  0  0  0  0  0  0  0  0  0
    5.9375   -1.0167    0.0000 C   0  0  0  0  0  0  0  0  0  0  0  0
    4.5000   -1.0292    0.0000 C   0  0  0  0  0  0  0  0  0  0  0  0
    5.2125    0.2208    0.0000 F   0  0  0  0  0  0  0  0  0  0  0  0
    3.7917   -3.9167    0.0000 C   0  0  0  0  0  0  0  0  0  0  0  0
    4.5042   -5.1542    0.0000 C   0  0  0  0  0  0  0  0  0  0  0  0
   11.6792   -2.6792    0.0000 C   0  0  0  0  0  0  0  0  0  0  0  0
    3.0792   -4.3167    0.0000 C   0  0  0  0  0  0  0  0  0  0  0  0
    3.7875   -5.5625    0.0000 C   0  0  0  0  0  0  0  0  0  0  0  0
    3.0750   -5.1417    0.0000 C   0  0  0  0  0  0  0  0  0  0  0  0
  2  1  1  0  0  0  0
  3  2  1  0  0  0  0
  4  3  1  0  0  0  0
  5  1  1  0  0  0  0
  6 10  1  0  0  0  0
  7  1  2  0  0  0  0
  8  1  2  0  0  0  0
  9  4  1  0  0  0  0
 10 16  2  0  0  0  0
 10 17  1  0  0  0  0
 11  2  1  0  0  0  0
 12  4  2  0  0  0  0
 13  6  2  0  0  0  0
 14  5  1  0  0  0  0
 15  5  2  0  0  0  0
 16 22  1  0  0  0  0
 17 21  2  0  0  0  0
 18  9  1  0  0  0  0
 19 23  2  0  0  0  0
 20  6  1  0  0  0  0
 21 18  1  0  0  0  0
 22 18  2  0  0  0  0
 23 15  1  0  0  0  0
 24 14  2  0  0  0  0
 24 19  1  0  0  0  0
 25 19  1  0  0  0  0
 26 11  1  0  0  0  0
 27 11  1  0  0  0  0
 28 20  1  0  0  0  0
 29 26  1  0  0  0  0
 30 27  1  0  0  0  0
 31 30  1  0  0  0  0
 31 29  1  0  0  0  0
M  END
>  <ID>
6681992

>  <Supplier>
ChemBridge

>  <clogP>
5.030000000000000e+000

>  <RB>
6

>  <tPSA>
9.278000000000000e+001

>  <Hacc>
6

>  <Hdon>
1

>  <LogSw>
-6.765000000000000e+000

>  <Group>
2

>  <Core>
568

$$$$
5549825
 OpenBabel03312015312D

 23 26  0  0  0  0  0  0  0  0999 V2000
   -0.4125    2.2833    0.0000 C   0  0  0  0  0  0  0  0  0  0  0  0
   -0.8125    2.8208    0.0000 N   0  0  0  0  0  0  0  0  0  0  0  0
   -0.8125    1.6833    0.0000 N   0  0  0  0  0  0  0  0  0  0  0  0
    0.3042    2.3000    0.0000 N   0  0  0  0  0  0  0  0  0  0  0  0
   -1.4708    1.9000    0.0000 C   0  0  0  0  0  0  0  0  0  0  0  0
   -1.4708    2.6208    0.0000 C   0  0  0  0  0  0  0  0  0  0  0  0
    0.6875    1.7000    0.0000 N   0  0  0  0  0  0  0  0  0  0  0  0
    1.7042    2.3458    0.0000 C   0  0  0  0  0  0  0  0  0  0  0  0
    2.4042    2.3708    0.0000 C   0  0  0  0  0  0  0  0  0  0  0  0
    1.3875    1.7208    0.0000 C   0  0  0  0  0  0  0  0  0  0  0  0
    2.7792    1.7833    0.0000 C   0  0  0  0  0  0  0  0  0  0  0  0
    1.7542    1.1208    0.0000 C   0  0  0  0  0  0  0  0  0  0  0  0
    2.4542    1.1500    0.0000 C   0  0  0  0  0  0  0  0  0  0  0  0
   -0.5708    1.0208    0.0000 C   0  0  0  0  0  0  0  0  0  0  0  0
    3.4792    1.8208    0.0000 O   0  0  0  0  0  0  0  0  0  0  0  0
   -2.0958    1.5458    0.0000 C   0  0  0  0  0  0  0  0  0  0  0  0
   -2.0958    2.9625    0.0000 C   0  0  0  0  0  0  0  0  0  0  0  0
    2.7292    3.0000    0.0000 C   0  0  0  0  0  0  0  0  0  0  0  0
    1.3375    2.9458    0.0000 C   0  0  0  0  0  0  0  0  0  0  0  0
   -2.7125    1.9000    0.0000 C   0  0  0  0  0  0  0  0  0  0  0  0
   -2.7125    2.6208    0.0000 C   0  0  0  0  0  0  0  0  0  0  0  0
    2.3542    3.6083    0.0000 C   0  0  0  0  0  0  0  0  0  0  0  0
    1.6542    3.5708    0.0000 C   0  0  0  0  0  0  0  0  0  0  0  0
  2  1  2  0  0  0  0
  3  1  1  0  0  0  0
  4  1  1  0  0  0  0
  5  3  1  0  0  0  0
  6  2  1  0  0  0  0
  6  5  2  0  0  0  0
  7  4  2  0  0  0  0
  8 10  2  0  0  0  0
  9  8  1  0  0  0  0
  9 11  2  0  0  0  0
 10  7  1  0  0  0  0
 11 13  1  0  0  0  0
 12 10  1  0  0  0  0
 13 12  2  0  0  0  0
 14  3  1  0  0  0  0
 15 11  1  0  0  0  0
 16  5  1  0  0  0  0
 17  6  1  0  0  0  0
 18  9  1  0  0  0  0
 19  8  1  0  0  0  0
 20 16  2  0  0  0  0
 21 17  2  0  0  0  0
 21 20  1  0  0  0  0
 22 23  1  0  0  0  0
 22 18  2  0  0  0  0
 23 19  2  0  0  0  0
M  END
>  <ID>
5549825

>  <Supplier>
ChemBridge

>  <clogP>
4.570000000000000e+000

>  <RB>
2

>  <tPSA>
6.277000000000000e+001

>  <Hacc>
5

>  <Hdon>
1

>  <LogSw>
-6.270000000000001e+000

>  <Group>
1

$$$$
5549827
 OpenBabel03312015312D

 22 23  0  0  0  0  0  0  0  0999 V2000
   -2.2125    1.9625    0.0000 S   0  0  0  0  0  0  0  0  0  0  0  0
   -2.2125    1.1000    0.0000 C   0  0  0  0  0  0  0  0  0  0  0  0
   -2.9708   -0.2000    0.0000 C   0  0  0  0  0  0  0  0  0  0  0  0
   -2.9500    0.6625    0.0000 C   0  0  0  0  0  0  0  0  0  0  0  0
   -3.7333   -0.6375    0.0000 N   0  0  0  0  0  0  0  0  0  0  0  0
   -4.4708   -0.2000    0.0000 C   0  0  0  0  0  0  0  0  0  0  0  0
   -1.3333    1.9625    0.0000 O   0  0  0  0  0  0  0  0  0  0  0  0
   -3.0708    1.9625    0.0000 O   0  0  0  0  0  0  0  0  0  0  0  0
   -2.2125    2.8458    0.0000 N   0  0  0  0  0  0  0  0  0  0  0  0
   -2.2125   -0.6375    0.0000 C   0  0  0  0  0  0  0  0  0  0  0  0
   -1.4500    0.6458    0.0000 C   0  0  0  0  0  0  0  0  0  0  0  0
   -4.4958    0.6625    0.0000 O   0  0  0  0  0  0  0  0  0  0  0  0
   -1.4708   -0.2167    0.0000 C   0  0  0  0  0  0  0  0  0  0  0  0
   -5.9958   -0.2167    0.0000 O   0  0  0  0  0  0  0  0  0  0  0  0
   -5.2333   -0.6375    0.0000 C   0  0  0  0  0  0  0  0  0  0  0  0
   -6.7500   -0.6542    0.0000 C   0  0  0  0  0  0  0  0  0  0  0  0
   -2.2125   -1.5167    0.0000 C   0  0  0  0  0  0  0  0  0  0  0  0
   -7.4792   -0.2375    0.0000 C   0  0  0  0  0  0  0  0  0  0  0  0
   -6.7500   -1.5375    0.0000 C   0  0  0  0  0  0  0  0  0  0  0  0
   -8.2500   -0.6542    0.0000 C   0  0  0  0  0  0  0  0  0  0  0  0
   -7.4792   -1.9542    0.0000 C   0  0  0  0  0  0  0  0  0  0  0  0
   -8.2667   -1.5167    0.0000 C   0  0  0  0  0  0  0  0  0  0  0  0
  2  1  1  0  0  0  0
  3  4  2  0  0  0  0
  3 10  1  0  0  0  0
  4  2  1  0  0  0  0
  5  3  1  0  0  0  0
  6  5  1  0  0  0  0
  7  1  2  0  0  0  0
  8  1  2  0  0  0  0
  9  1  1  0  0  0  0
 10 13  2  0  0  0  0
 11  2  2  0  0  0  0
 12  6  2  0  0  0  0
 13 11  1  0  0  0  0
 14 15  1  0  0  0  0
 15  6  1  0  0  0  0
 16 14  1  0  0  0  0
 17 10  1  0  0  0  0
 18 16  2  0  0  0  0
 19 16  1  0  0  0  0
 20 18  1  0  0  0  0
 20 22  2  0  0  0  0
 21 19  2  0  0  0  0
 22 21  1  0  0  0  0
M  END
>  <ID>
5549827

>  <Supplier>
ChemBridge

>  <clogP>
1.010000000000000e+000

>  <RB>
5

>  <tPSA>
9.849000000000002e+001

>  <Hacc>
5

>  <Hdon>
2

>  <LogSw>
-2.399000000000000e+000

>  <Group>
3

>  <Core>
236

$$$$
6599453
 OpenBabel03312015312D

 30 33  0  0  0  0  0  0  0  0999 V2000
    7.0292    8.4792    0.0000 N   0  0  0  0  0  0  0  0  0  0  0  0
    5.6417    8.4792    0.0000 C   0  0  0  0  0  0  0  0  0  0  0  0
    7.7292    9.6917    0.0000 C   0  0  0  0  0  0  0  0  0  0  0  0
    2.1125    2.4333    0.0000 N   0  0  0  0  0  0  0  0  0  0  0  0
    4.9292    7.2542    0.0000 N   0  0  0  0  0  0  0  0  0  0  0  0
    4.9417    9.6917    0.0000 S   0  0  0  0  0  0  0  0  0  0  0  0
    9.1292    9.6917    0.0000 C   0  0  0  0  0  0  0  0  0  0  0  0
    2.8167    3.6333    0.0000 C   0  0  0  0  0  0  0  0  0  0  0  0
    7.0292   10.9000    0.0000 O   0  0  0  0  0  0  0  0  0  0  0  0
   11.9542    9.6917    0.0000 C   0  0  0  0  0  0  0  0  0  0  0  0
    9.8417   10.9042    0.0000 C   0  0  0  0  0  0  0  0  0  0  0  0
    9.8417    8.4667    0.0000 C   0  0  0  0  0  0  0  0  0  0  0  0
   11.2417    8.4667    0.0000 C   0  0  0  0  0  0  0  0  0  0  0  0
   11.2542   10.9042    0.0000 C   0  0  0  0  0  0  0  0  0  0  0  0
    2.1167    4.8542    0.0000 C   0  0  0  0  0  0  0  0  0  0  0  0
    4.2292    3.6333    0.0000 C   0  0  0  0  0  0  0  0  0  0  0  0
   13.3542    9.6792    0.0000 C   0  0  0  0  0  0  0  0  0  0  0  0
    4.2167    6.0625    0.0000 C   0  0  0  0  0  0  0  0  0  0  0  0
    4.9292    4.8292    0.0000 C   0  0  0  0  0  0  0  0  0  0  0  0
    2.8292    6.0625    0.0000 C   0  0  0  0  0  0  0  0  0  0  0  0
    0.7125    2.4458    0.0000 C   0  0  0  0  0  0  0  0  0  0  0  0
    2.7917    1.2125    0.0000 C   0  0  0  0  0  0  0  0  0  0  0  0
   14.0542   10.9000    0.0000 C   0  0  0  0  0  0  0  0  0  0  0  0
   14.0417    8.4625    0.0000 C   0  0  0  0  0  0  0  0  0  0  0  0
    2.0917    0.0000    0.0000 C   0  0  0  0  0  0  0  0  0  0  0  0
    0.0000    1.2333    0.0000 C   0  0  0  0  0  0  0  0  0  0  0  0
   15.4375    8.4625    0.0000 C   0  0  0  0  0  0  0  0  0  0  0  0
   15.4542   10.9000    0.0000 C   0  0  0  0  0  0  0  0  0  0  0  0
   16.1542    9.6667    0.0000 C   0  0  0  0  0  0  0  0  0  0  0  0
    0.7000    0.0083    0.0000 C   0  0  0  0  0  0  0  0  0  0  0  0
  2  1  1  0  0  0  0
  3  1  1  0  0  0  0
  4  8  1  0  0  0  0
  5  2  1  0  0  0  0
  6  2  2  0  0  0  0
  7  3  1  0  0  0  0
  8 15  2  0  0  0  0
  8 16  1  0  0  0  0
  9  3  2  0  0  0  0
 10 13  2  0  0  0  0
 10 14  1  0  0  0  0
 11  7  1  0  0  0  0
 12  7  2  0  0  0  0
 13 12  1  0  0  0  0
 14 11  2  0  0  0  0
 15 20  1  0  0  0  0
 16 19  2  0  0  0  0
 17 10  1  0  0  0  0
 18  5  1  0  0  0  0
 19 18  1  0  0  0  0
 20 18  2  0  0  0  0
 21  4  1  0  0  0  0
 22  4  1  0  0  0  0
 23 17  2  0  0  0  0
 24 17  1  0  0  0  0
 25 22  1  0  0  0  0
 26 21  1  0  0  0  0
 26 30  1  0  0  0  0
 27 24  2  0  0  0  0
 28 23  1  0  0  0  0
 28 29  2  0  0  0  0
 29 27  1  0  0  0  0
 30 25  1  0  0  0  0
M  END
>  <ID>
6599453

>  <Supplier>
ChemBridge

>  <clogP>
5.800000000000000e+000

>  <RB>
4

>  <tPSA>
4.437000000000001e+001

>  <Hacc>
1

>  <Hdon>
2

>  <LogSw>
-7.182000000000000e+000

>  <Group>
1

>  <Core>
071

$$$$
6599452
 OpenBabel03312015312D

 25 26  0  0  0  0  0  0  0  0999 V2000
   -3.6125    0.9458    0.0000 C   0  0  0  0  0  0  0  0  0  0  0  0
   -4.7208    0.2958    0.0000 N   0  0  0  0  0  0  0  0  0  0  0  0
   -4.3625    0.9458    0.0000 C   0  0  0  0  0  0  0  0  0  0  0  0
   -4.3500   -0.3375    0.0000 C   0  0  0  0  0  0  0  0  0  0  0  0
   -3.2458    0.3000    0.0000 C   0  0  0  0  0  0  0  0  0  0  0  0
   -3.6125   -0.3500    0.0000 N   0  0  0  0  0  0  0  0  0  0  0  0
   -3.2625    1.5833    0.0000 N   0  3  0  0  0  0  0  0  0  0  0  0
   -2.5000    0.2958    0.0000 C   0  0  0  0  0  0  0  0  0  0  0  0
   -2.0958   -0.3375    0.0000 C   0  0  0  0  0  0  0  0  0  0  0  0
   -4.7208   -0.9875    0.0000 O   0  0  0  0  0  0  0  0  0  0  0  0
   -4.7333    1.5708    0.0000 O   0  0  0  0  0  0  0  0  0  0  0  0
   -0.9458   -0.9292    0.0000 C   0  0  0  0  0  0  0  0  0  0  0  0
   -2.5000    1.6125    0.0000 O   0  5  0  0  0  0  0  0  0  0  0  0
   -0.2125   -0.8542    0.0000 C   0  0  0  0  0  0  0  0  0  0  0  0
   -1.3458   -0.3042    0.0000 C   0  0  0  0  0  0  0  0  0  0  0  0
   -3.6208    2.2125    0.0000 O   0  0  0  0  0  0  0  0  0  0  0  0
   -5.4708    0.2958    0.0000 C   0  0  0  0  0  0  0  0  0  0  0  0
   -1.0500    0.3458    0.0000 C   0  0  0  0  0  0  0  0  0  0  0  0
    0.1042   -0.1875    0.0000 C   0  0  0  0  0  0  0  0  0  0  0  0
   -3.2458   -0.9792    0.0000 C   0  0  0  0  0  0  0  0  0  0  0  0
   -0.2958    0.4125    0.0000 C   0  0  0  0  0  0  0  0  0  0  0  0
   -1.2500   -1.5875    0.0000 O   0  0  0  0  0  0  0  0  0  0  0  0
    0.8375   -0.1167    0.0000 O   0  0  0  0  0  0  0  0  0  0  0  0
   -1.9708   -1.6375    0.0000 C   0  0  0  0  0  0  0  0  0  0  0  0
    1.1375    0.5458    0.0000 C   0  0  0  0  0  0  0  0  0  0  0  0
  2  3  1  0  0  0  0
  3  1  1  0  0  0  0
  4  6  1  0  0  0  0
  4  2  1  0  0  0  0
  5  1  2  0  0  0  0
  6  5  1  0  0  0  0
  7  1  1  0  0  0  0
  8  5  1  0  0  0  0
  9  8  2  0  0  0  0
 10  4  2  0  0  0  0
 11  3  2  0  0  0  0
 12 15  2  0  0  0  0
 13  7  1  0  0  0  0
 14 12  1  0  0  0  0
 15  9  1  0  0  0  0
 16  7  2  0  0  0  0
 17  2  1  0  0  0  0
 18 15  1  0  0  0  0
 19 21  1  0  0  0  0
 19 14  2  0  0  0  0
 20  6  1  0  0  0  0
 21 18  2  0  0  0  0
 22 12  1  0  0  0  0
 23 19  1  0  0  0  0
 24 22  1  0  0  0  0
 25 23  1  0  0  0  0
M  CHG  2   7   1  13  -1
M  END
>  <ID>
6599452

>  <Supplier>
ChemBridge

>  <clogP>
2.210000000000000e+000

>  <RB>
2

>  <tPSA>
1.056000000000000e+002

>  <Hacc>
6

>  <Hdon>
0

>  <LogSw>
-4.010000000000000e+000

>  <Group>
3

>  <Core>
222

$$$$
9026193
 OpenBabel03312015312D

 22 23  0  0  0  0  0  0  0  0999 V2000
    4.2292    2.6833    0.0000 S   0  0  0  0  0  0  0  0  0  0  0  0
    4.8792    2.3083    0.0000 C   0  0  0  0  0  0  0  0  0  0  0  0
    4.8792    1.5583    0.0000 C   0  0  0  0  0  0  0  0  0  0  0  0
    4.6542    3.3000    0.0000 O   0  0  0  0  0  0  0  0  0  0  0  0
    3.6542    3.1708    0.0000 O   0  0  0  0  0  0  0  0  0  0  0  0
    5.5292    2.6833    0.0000 C   0  0  0  0  0  0  0  0  0  0  0  0
    3.7000    2.1583    0.0000 N   0  0  0  0  0  0  0  0  0  0  0  0
    1.7167    2.0208    0.0000 N   0  0  0  0  0  0  0  0  0  0  0  0
    0.2667    2.4000    0.0000 O   0  0  0  0  0  0  0  0  0  0  0  0
    2.9750    2.3500    0.0000 C   0  0  0  0  0  0  0  0  0  0  0  0
    6.1750    2.3083    0.0000 C   0  0  0  0  0  0  0  0  0  0  0  0
    5.5292    1.1833    0.0000 C   0  0  0  0  0  0  0  0  0  0  0  0
    6.1750    1.5583    0.0000 C   0  0  0  0  0  0  0  0  0  0  0  0
    5.5292    0.4333    0.0000 Cl  0  0  0  0  0  0  0  0  0  0  0  0
    2.4417    1.8208    0.0000 C   0  0  0  0  0  0  0  0  0  0  0  0
    5.5292    3.4333    0.0000 O   0  0  0  0  0  0  0  0  0  0  0  0
    1.1875    1.4833    0.0000 C   0  0  0  0  0  0  0  0  0  0  0  0
    1.5250    2.7375    0.0000 C   0  0  0  0  0  0  0  0  0  0  0  0
    0.8000    2.9333    0.0000 C   0  0  0  0  0  0  0  0  0  0  0  0
    0.4625    1.6750    0.0000 C   0  0  0  0  0  0  0  0  0  0  0  0
    6.1750    3.8083    0.0000 C   0  0  0  0  0  0  0  0  0  0  0  0
    6.1750    4.5542    0.0000 C   0  0  0  0  0  0  0  0  0  0  0  0
  2  1  1  0  0  0  0
  3  2  1  0  0  0  0
  4  1  2  0  0  0  0
  5  1  2  0  0  0  0
  6  2  2  0  0  0  0
  7  1  1  0  0  0  0
  8 15  1  0  0  0  0
  9 19  1  0  0  0  0
 10  7  1  0  0  0  0
 11  6  1  0  0  0  0
 12  3  2  0  0  0  0
 12 13  1  0  0  0  0
 13 11  2  0  0  0  0
 14 12  1  0  0  0  0
 15 10  1  0  0  0  0
 16  6  1  0  0  0  0
 17  8  1  0  0  0  0
 18  8  1  0  0  0  0
 19 18  1  0  0  0  0
 20 17  1  0  0  0  0
 20  9  1  0  0  0  0
 21 16  1  0  0  0  0
 22 21  1  0  0  0  0
M  END
>  <ID>
9026193

>  <Supplier>
ChemBridge

>  <clogP>
2.540000000000000e+000

>  <RB>
4

>  <tPSA>
6.787000000000001e+001

>  <Hacc>
6

>  <Hdon>
1

>  <LogSw>
-2.905000000000000e+000

>  <Group>
3

$$$$
6599456
 OpenBabel03312015312D

 18 18  0  0  0  0  0  0  0  0999 V2000
    4.9125    1.2250    0.0000 C   0  0  0  0  0  0  0  0  0  0  0  0
    4.2125    2.4458    0.0000 N   0  0  0  0  0  0  0  0  0  0  0  0
    2.8125    2.4458    0.0000 C   0  0  0  0  0  0  0  0  0  0  0  0
    6.3125    1.2250    0.0000 N   0  0  0  0  0  0  0  0  0  0  0  0
    7.7125    1.2250    0.0000 C   0  0  0  0  0  0  0  0  0  0  0  0
    8.4167    2.4333    0.0000 C   0  0  0  0  0  0  0  0  0  0  0  0
    9.8292    2.4333    0.0000 C   0  0  0  0  0  0  0  0  0  0  0  0
    4.2125    0.0208    0.0000 S   0  0  0  0  0  0  0  0  0  0  0  0
    2.1125    1.2250    0.0000 O   0  0  0  0  0  0  0  0  0  0  0  0
    8.4000    0.0208    0.0000 C   0  0  0  0  0  0  0  0  0  0  0  0
   10.5167    1.2083    0.0000 C   0  0  0  0  0  0  0  0  0  0  0  0
    2.1125    3.6500    0.0000 C   0  0  0  0  0  0  0  0  0  0  0  0
    7.7292    3.6500    0.0000 Cl  0  0  0  0  0  0  0  0  0  0  0  0
    9.8167    0.0000    0.0000 C   0  0  0  0  0  0  0  0  0  0  0  0
   11.9167    1.2083    0.0000 I   0  0  0  0  0  0  0  0  0  0  0  0
    0.7000    3.6708    0.0000 C   0  0  0  0  0  0  0  0  0  0  0  0
    0.0125    4.8542    0.0000 C   0  0  0  0  0  0  0  0  0  0  0  0
    0.0000    2.4583    0.0000 C   0  0  0  0  0  0  0  0  0  0  0  0
  2  1  1  0  0  0  0
  3  2  1  0  0  0  0
  4  1  1  0  0  0  0
  5  4  1  0  0  0  0
  6  5  1  0  0  0  0
  7  6  2  0  0  0  0
  7 11  1  0  0  0  0
  8  1  2  0  0  0  0
  9  3  2  0  0  0  0
 10  5  2  0  0  0  0
 11 14  2  0  0  0  0
 12  3  1  0  0  0  0
 13  6  1  0  0  0  0
 14 10  1  0  0  0  0
 15 11  1  0  0  0  0
 16 12  1  0  0  0  0
 17 16  1  0  0  0  0
 18 16  1  0  0  0  0
M  END
>  <ID>
6599456

>  <Supplier>
ChemBridge

>  <clogP>
5.790000000000000e+000

>  <RB>
2

>  <tPSA>
4.113000000000000e+001

>  <Hacc>
1

>  <Hdon>
2

>  <LogSw>
-7.036000000000001e+000

>  <Group>
2

>  <Core>
071

$$$$
5340569
 OpenBabel03312015312D

 20 21  0  0  0  0  0  0  0  0999 V2000
   -1.6208    0.3500    0.0000 C   0  0  0  0  0  0  0  0  0  0  0  0
   -2.4000    0.3500    0.0000 N   0  0  0  0  0  0  0  0  0  0  0  0
   -1.2458    1.0208    0.0000 N   0  0  0  0  0  0  0  0  0  0  0  0
   -2.7958    1.0125    0.0000 C   0  0  0  0  0  0  0  0  0  0  0  0
   -2.4333    1.7000    0.0000 C   0  0  0  0  0  0  0  0  0  0  0  0
   -1.2208   -0.3042    0.0000 N   0  0  0  0  0  0  0  0  0  0  0  0
   -1.6458    1.6958    0.0000 C   0  0  0  0  0  0  0  0  0  0  0  0
   -0.4958   -0.3000    0.0000 C   0  0  0  0  0  0  0  0  0  0  0  0
   -3.5833    1.0125    0.0000 O   0  0  0  0  0  0  0  0  0  0  0  0
    1.0875   -0.3000    0.0000 C   0  0  0  0  0  0  0  0  0  0  0  0
   -0.1000   -0.9667    0.0000 C   0  0  0  0  0  0  0  0  0  0  0  0
   -0.0833    0.3500    0.0000 C   0  0  0  0  0  0  0  0  0  0  0  0
    0.6875   -0.9667    0.0000 C   0  0  0  0  0  0  0  0  0  0  0  0
    0.7000    0.3500    0.0000 C   0  0  0  0  0  0  0  0  0  0  0  0
    1.8792   -0.3042    0.0000 O   0  0  0  0  0  0  0  0  0  0  0  0
   -1.2708    2.3708    0.0000 C   0  0  0  0  0  0  0  0  0  0  0  0
    2.2667    0.3500    0.0000 C   0  0  0  0  0  0  0  0  0  0  0  0
    3.0375    0.3500    0.0000 C   0  0  0  0  0  0  0  0  0  0  0  0
    3.4042   -0.3375    0.0000 C   0  0  0  0  0  0  0  0  0  0  0  0
    4.2042   -0.3667    0.0000 C   0  0  0  0  0  0  0  0  0  0  0  0
  2  1  1  0  0  0  0
  3  1  2  0  0  0  0
  4  2  2  0  0  0  0
  5  7  2  0  0  0  0
  5  4  1  0  0  0  0
  6  1  1  0  0  0  0
  7  3  1  0  0  0  0
  8  6  1  0  0  0  0
  9  4  1  0  0  0  0
 10 14  1  0  0  0  0
 11  8  2  0  0  0  0
 12  8  1  0  0  0  0
 13 11  1  0  0  0  0
 13 10  2  0  0  0  0
 14 12  2  0  0  0  0
 15 10  1  0  0  0  0
 16  7  1  0  0  0  0
 17 15  1  0  0  0  0
 18 17  1  0  0  0  0
 19 18  1  0  0  0  0
 20 19  1  0  0  0  0
M  END
>  <ID>
5340569

>  <Supplier>
ChemBridge

>  <clogP>
5.020000000000000e+000

>  <RB>
4

>  <tPSA>
6.727000000000000e+001

>  <Hacc>
4

>  <Hdon>
2

>  <LogSw>
-5.481000000000002e+000

>  <Group>
3

$$$$
5919809
 OpenBabel03312015312D

 27 30  0  0  0  0  0  0  0  0999 V2000
    0.9375   -1.4167    0.0000 C   0  0  0  0  0  0  0  0  0  0  0  0
    1.4875   -0.3792    0.0000 C   0  0  0  0  0  0  0  0  0  0  0  0
   -0.2708    0.5708    0.0000 C   0  0  0  0  0  0  0  0  0  0  0  0
    1.7375   -2.2667    0.0000 N   0  0  0  0  0  0  0  0  0  0  0  0
    2.6500   -0.6042    0.0000 N   0  0  0  0  0  0  0  0  0  0  0  0
    0.8792    0.6000    0.0000 S   0  0  0  0  0  0  0  0  0  0  0  0
    0.0375   -1.9792    0.0000 N   0  3  0  0  0  0  0  0  0  0  0  0
    2.8000   -1.7667    0.0000 C   0  0  0  0  0  0  0  0  0  0  0  0
   -0.9625   -0.3792    0.0000 N   0  0  0  0  0  0  0  0  0  0  0  0
   -0.9625    1.4833    0.0000 N   0  0  0  0  0  0  0  0  0  0  0  0
   -2.0625    1.1333    0.0000 C   0  0  0  0  0  0  0  0  0  0  0  0
   -2.0625   -0.0292    0.0000 C   0  0  0  0  0  0  0  0  0  0  0  0
    3.4792    0.2000    0.0000 C   0  0  0  0  0  0  0  0  0  0  0  0
   -1.4000   -1.5167    0.0000 O   0  5  0  0  0  0  0  0  0  0  0  0
   -0.0500   -3.3792    0.0000 O   0  0  0  0  0  0  0  0  0  0  0  0
   -0.7500    2.3625    0.0000 C   0  0  0  0  0  0  0  0  0  0  0  0
    3.8542   -2.3000    0.0000 C   0  0  0  0  0  0  0  0  0  0  0  0
    3.2292    1.3000    0.0000 C   0  0  0  0  0  0  0  0  0  0  0  0
   -3.0708    1.7125    0.0000 C   0  0  0  0  0  0  0  0  0  0  0  0
   -3.0708   -0.6042    0.0000 C   0  0  0  0  0  0  0  0  0  0  0  0
    4.0542    2.1125    0.0000 C   0  0  0  0  0  0  0  0  0  0  0  0
    2.1167    1.6625    0.0000 C   0  0  0  0  0  0  0  0  0  0  0  0
   -4.0833    1.1333    0.0000 C   0  0  0  0  0  0  0  0  0  0  0  0
   -4.0833   -0.0292    0.0000 C   0  0  0  0  0  0  0  0  0  0  0  0
    3.8042    3.2208    0.0000 C   0  0  0  0  0  0  0  0  0  0  0  0
    1.8375    2.7958    0.0000 C   0  0  0  0  0  0  0  0  0  0  0  0
    2.7000    3.5708    0.0000 C   0  0  0  0  0  0  0  0  0  0  0  0
  2  1  2  0  0  0  0
  3  6  1  0  0  0  0
  4  1  1  0  0  0  0
  5  2  1  0  0  0  0
  5  8  1  0  0  0  0
  6  2  1  0  0  0  0
  7  1  1  0  0  0  0
  8  4  2  0  0  0  0
  9  3  2  0  0  0  0
 10  3  1  0  0  0  0
 11 10  1  0  0  0  0
 12  9  1  0  0  0  0
 12 11  2  0  0  0  0
 13  5  1  0  0  0  0
 14  7  1  0  0  0  0
 15  7  2  0  0  0  0
 16 10  1  0  0  0  0
 17  8  1  0  0  0  0
 18 13  1  0  0  0  0
 19 11  1  0  0  0  0
 20 12  1  0  0  0  0
 21 18  2  0  0  0  0
 22 18  1  0  0  0  0
 23 19  2  0  0  0  0
 23 24  1  0  0  0  0
 24 20  2  0  0  0  0
 25 21  1  0  0  0  0
 26 22  2  0  0  0  0
 27 26  1  0  0  0  0
 27 25  2  0  0  0  0
M  CHG  2   7   1  14  -1
M  END
>  <ID>
5919809

>  <Supplier>
ChemBridge

>  <clogP>
3.870000000000000e+000

>  <RB>
4

>  <tPSA>
7.878000000000000e+001

>  <Hacc>
6

>  <Hdon>
0

>  <LogSw>
-5.661000000000000e+000

>  <Group>
1

>  <Core>
031

$$$$
5919808
 OpenBabel03312015312D

 21 22  0  0  0  0  0  0  0  0999 V2000
    1.5375   -0.2542    0.0000 S   0  0  0  0  0  0  0  0  0  0  0  0
    1.2000   -0.8542    0.0000 C   0  0  0  0  0  0  0  0  0  0  0  0
    0.4792   -0.0292    0.0000 N   0  0  0  0  0  0  0  0  0  0  0  0
    1.0792    0.2625    0.0000 C   0  0  0  0  0  0  0  0  0  0  0  0
    0.5375   -0.7000    0.0000 N   0  0  0  0  0  0  0  0  0  0  0  0
   -0.5208   -1.4542    0.0000 C   0  0  0  0  0  0  0  0  0  0  0  0
    1.5375   -1.4542    0.0000 N   0  0  0  0  0  0  0  0  0  0  0  0
   -0.8625   -0.8542    0.0000 N   0  0  0  0  0  0  0  0  0  0  0  0
   -0.8625   -2.0375    0.0000 N   0  0  0  0  0  0  0  0  0  0  0  0
    1.2000   -2.0375    0.0000 C   0  0  0  0  0  0  0  0  0  0  0  0
    0.1792   -1.4542    0.0000 S   0  0  0  0  0  0  0  0  0  0  0  0
   -1.5458   -2.0375    0.0000 C   0  0  0  0  0  0  0  0  0  0  0  0
   -1.5458   -0.8375    0.0000 C   0  0  0  0  0  0  0  0  0  0  0  0
   -1.8833   -1.4542    0.0000 C   0  0  0  0  0  0  0  0  0  0  0  0
    1.5375   -2.6375    0.0000 O   0  0  0  0  0  0  0  0  0  0  0  0
    1.2000    0.9458    0.0000 C   0  0  0  0  0  0  0  0  0  0  0  0
    0.5167   -2.0375    0.0000 C   0  0  0  0  0  0  0  0  0  0  0  0
   -1.8625   -0.2375    0.0000 C   0  0  0  0  0  0  0  0  0  0  0  0
   -1.8833   -2.6375    0.0000 C   0  0  0  0  0  0  0  0  0  0  0  0
    0.6542    1.3833    0.0000 C   0  0  0  0  0  0  0  0  0  0  0  0
    1.8292    1.1625    0.0000 C   0  0  0  0  0  0  0  0  0  0  0  0
  2  1  1  0  0  0  0
  3  4  2  0  0  0  0
  4  1  1  0  0  0  0
  5  2  2  0  0  0  0
  5  3  1  0  0  0  0
  6 11  1  0  0  0  0
  7  2  1  0  0  0  0
  8  6  2  0  0  0  0
  9  6  1  0  0  0  0
 10  7  1  0  0  0  0
 11 17  1  0  0  0  0
 12  9  2  0  0  0  0
 13  8  1  0  0  0  0
 14 12  1  0  0  0  0
 14 13  2  0  0  0  0
 15 10  2  0  0  0  0
 16  4  1  0  0  0  0
 17 10  1  0  0  0  0
 18 13  1  0  0  0  0
 19 12  1  0  0  0  0
 20 16  1  0  0  0  0
 21 16  1  0  0  0  0
M  END
>  <ID>
5919808

>  <Supplier>
ChemBridge

>  <clogP>
1.910000000000000e+000

>  <RB>
4

>  <tPSA>
8.066000000000003e+001

>  <Hacc>
5

>  <Hdon>
1

>  <LogSw>
-3.190000000000000e+000

>  <Group>
1

>  <Core>
246

$$$$
5882147
 OpenBabel03312015312D

 28 30  0  0  0  0  0  0  0  0999 V2000
    0.1500   -0.0042    0.0000 N   0  0  0  0  0  0  0  0  0  0  0  0
   -0.1708   -0.7000    0.0000 C   0  0  0  0  0  0  0  0  0  0  0  0
   -0.4500    0.5208    0.0000 C   0  0  0  0  0  0  0  0  0  0  0  0
   -0.9458   -0.6292    0.0000 S   0  0  0  0  0  0  0  0  0  0  0  0
   -1.1333    0.1000    0.0000 C   0  0  0  0  0  0  0  0  0  0  0  0
    0.9000    0.2625    0.0000 C   0  0  0  0  0  0  0  0  0  0  0  0
    0.2500   -1.4000    0.0000 S   0  0  0  0  0  0  0  0  0  0  0  0
   -1.8708    0.4208    0.0000 C   0  0  0  0  0  0  0  0  0  0  0  0
    3.6000   -0.2000    0.0000 C   0  0  0  0  0  0  0  0  0  0  0  0
   -0.3833    1.3125    0.0000 O   0  0  0  0  0  0  0  0  0  0  0  0
   -2.5208   -0.0792    0.0000 C   0  0  0  0  0  0  0  0  0  0  0  0
    3.7500    0.5958    0.0000 C   0  0  0  0  0  0  0  0  0  0  0  0
    2.8542   -0.4667    0.0000 C   0  0  0  0  0  0  0  0  0  0  0  0
   -3.2625    0.2125    0.0000 C   0  0  0  0  0  0  0  0  0  0  0  0
    3.1500    1.1000    0.0000 C   0  0  0  0  0  0  0  0  0  0  0  0
    2.2542    0.0333    0.0000 C   0  0  0  0  0  0  0  0  0  0  0  0
    1.5000   -0.2500    0.0000 C   0  0  0  0  0  0  0  0  0  0  0  0
    2.4000    0.8208    0.0000 C   0  0  0  0  0  0  0  0  0  0  0  0
    4.2292   -0.6792    0.0000 O   0  0  0  0  0  0  0  0  0  0  0  0
   -3.8958   -0.2542    0.0000 C   0  0  0  0  0  0  0  0  0  0  0  0
    4.5042    0.8708    0.0000 O   0  0  0  0  0  0  0  0  0  0  0  0
    4.1042   -1.4667    0.0000 C   0  0  0  0  0  0  0  0  0  0  0  0
   -4.6125    0.0500    0.0000 C   0  0  0  0  0  0  0  0  0  0  0  0
   -3.7708   -1.0292    0.0000 C   0  0  0  0  0  0  0  0  0  0  0  0
    4.6500    1.6625    0.0000 C   0  0  0  0  0  0  0  0  0  0  0  0
   -4.4208   -1.5167    0.0000 C   0  0  0  0  0  0  0  0  0  0  0  0
   -5.2708   -0.4292    0.0000 C   0  0  0  0  0  0  0  0  0  0  0  0
   -5.1458   -1.2000    0.0000 C   0  0  0  0  0  0  0  0  0  0  0  0
  2  1  1  0  0  0  0
  3  1  1  0  0  0  0
  4  2  1  0  0  0  0
  5  3  1  0  0  0  0
  5  4  1  0  0  0  0
  6  1  1  0  0  0  0
  7  2  2  0  0  0  0
  8  5  2  0  0  0  0
  9 13  1  0  0  0  0
  9 12  2  0  0  0  0
 10  3  2  0  0  0  0
 11  8  1  0  0  0  0
 12 15  1  0  0  0  0
 13 16  2  0  0  0  0
 14 11  2  0  0  0  0
 15 18  2  0  0  0  0
 16 17  1  0  0  0  0
 17  6  1  0  0  0  0
 18 16  1  0  0  0  0
 19  9  1  0  0  0  0
 20 14  1  0  0  0  0
 21 12  1  0  0  0  0
 22 19  1  0  0  0  0
 23 20  2  0  0  0  0
 24 20  1  0  0  0  0
 25 21  1  0  0  0  0
 26 24  2  0  0  0  0
 27 23  1  0  0  0  0
 28 26  1  0  0  0  0
 28 27  2  0  0  0  0
M  END
>  <ID>
5882147

>  <Supplier>
ChemBridge

>  <clogP>
4.490000000000000e+000

>  <RB>
5

>  <tPSA>
3.877000000000000e+001

>  <Hacc>
3

>  <Hdon>
0

>  <LogSw>
-6.034000000000000e+000

>  <Group>
3

>  <Core>
001

$$$$
5340567
 OpenBabel03312015312D

 14 15  0  0  0  0  0  0  0  0999 V2000
   -1.7958    1.8625    0.0000 C   0  0  0  0  0  0  0  0  0  0  0  0
   -2.5000    1.4500    0.0000 N   0  0  0  0  0  0  0  0  0  0  0  0
   -1.7958    2.6833    0.0000 N   0  0  0  0  0  0  0  0  0  0  0  0
   -1.0833    1.4500    0.0000 N   0  0  0  0  0  0  0  0  0  0  0  0
   -3.2000    1.8625    0.0000 C   0  0  0  0  0  0  0  0  0  0  0  0
   -3.2000    2.6833    0.0000 C   0  0  0  0  0  0  0  0  0  0  0  0
   -2.5000    3.0958    0.0000 C   0  0  0  0  0  0  0  0  0  0  0  0
    0.0792    0.3208    0.0000 O   0  0  0  0  0  0  0  0  0  0  0  0
   -3.9333    1.4458    0.0000 O   0  0  0  0  0  0  0  0  0  0  0  0
   -0.3000    1.6708    0.0000 C   0  0  0  0  0  0  0  0  0  0  0  0
   -1.2833    0.6625    0.0000 C   0  0  0  0  0  0  0  0  0  0  0  0
    0.2792    1.1000    0.0000 C   0  0  0  0  0  0  0  0  0  0  0  0
   -0.7000    0.1000    0.0000 C   0  0  0  0  0  0  0  0  0  0  0  0
   -2.5208    3.9208    0.0000 C   0  0  0  0  0  0  0  0  0  0  0  0
  2  1  2  0  0  0  0
  3  1  1  0  0  0  0
  4  1  1  0  0  0  0
  5  2  1  0  0  0  0
  6  7  1  0  0  0  0
  6  5  2  0  0  0  0
  7  3  2  0  0  0  0
  8 13  1  0  0  0  0
  8 12  1  0  0  0  0
  9  5  1  0  0  0  0
 10  4  1  0  0  0  0
 11  4  1  0  0  0  0
 12 10  1  0  0  0  0
 13 11  1  0  0  0  0
 14  7  1  0  0  0  0
M  END
>  <ID>
5340567

>  <Supplier>
ChemBridge

>  <clogP>
1.690000000000000e+000

>  <RB>
1

>  <tPSA>
5.848000000000000e+001

>  <Hacc>
4

>  <Hdon>
1

>  <LogSw>
-2.068000000000000e+000

>  <Group>
1

$$$$
5340560
 OpenBabel03312015312D

 31 34  0  0  0  0  0  0  0  0999 V2000
   -3.7958    1.1625    0.0000 C   0  0  0  0  0  0  0  0  0  0  0  0
   -3.1125    1.5500    0.0000 N   0  0  0  0  0  0  0  0  0  0  0  0
   -3.7958    0.3708    0.0000 C   0  0  0  0  0  0  0  0  0  0  0  0
   -3.1125   -0.0167    0.0000 N   0  0  0  0  0  0  0  0  0  0  0  0
   -2.4333    0.3708    0.0000 C   0  0  0  0  0  0  0  0  0  0  0  0
   -2.4333    1.1625    0.0000 N   0  0  0  0  0  0  0  0  0  0  0  0
   -1.7500   -0.0292    0.0000 N   0  0  0  0  0  0  0  0  0  0  0  0
   -4.4708    1.5500    0.0000 C   0  0  0  0  0  0  0  0  0  0  0  0
   -4.4708   -0.0167    0.0000 C   0  0  0  0  0  0  0  0  0  0  0  0
   -1.0708    0.3500    0.0000 C   0  0  0  0  0  0  0  0  0  0  0  0
    0.3042    1.1208    0.0000 C   0  0  0  0  0  0  0  0  0  0  0  0
   -1.0625    1.1333    0.0000 C   0  0  0  0  0  0  0  0  0  0  0  0
   -0.4125   -0.0500    0.0000 C   0  0  0  0  0  0  0  0  0  0  0  0
    0.2792    0.3333    0.0000 C   0  0  0  0  0  0  0  0  0  0  0  0
   -0.3833    1.5208    0.0000 C   0  0  0  0  0  0  0  0  0  0  0  0
   -4.4708    2.3458    0.0000 C   0  0  0  0  0  0  0  0  0  0  0  0
   -5.1583    1.1625    0.0000 C   0  0  0  0  0  0  0  0  0  0  0  0
   -4.4708   -0.8042    0.0000 C   0  0  0  0  0  0  0  0  0  0  0  0
   -5.1583    0.3708    0.0000 C   0  0  0  0  0  0  0  0  0  0  0  0
    1.0167    1.4958    0.0000 C   0  0  0  0  0  0  0  0  0  0  0  0
    1.6875    1.0625    0.0000 C   0  0  0  0  0  0  0  0  0  0  0  0
    3.7500    1.3833    0.0000 C   0  0  0  0  0  0  0  0  0  0  0  0
    3.0542    1.0125    0.0000 C   0  0  0  0  0  0  0  0  0  0  0  0
    2.3792    1.4333    0.0000 C   0  0  0  0  0  0  0  0  0  0  0  0
    4.4167    0.9625    0.0000 C   0  0  0  0  0  0  0  0  0  0  0  0
   -5.8333    1.5500    0.0000 C   0  0  0  0  0  0  0  0  0  0  0  0
   -5.1583    2.7333    0.0000 C   0  0  0  0  0  0  0  0  0  0  0  0
   -5.1583   -1.2000    0.0000 C   0  0  0  0  0  0  0  0  0  0  0  0
   -5.8333   -0.0167    0.0000 C   0  0  0  0  0  0  0  0  0  0  0  0
   -5.8333   -0.8042    0.0000 C   0  0  0  0  0  0  0  0  0  0  0  0
   -5.8333    2.3458    0.0000 C   0  0  0  0  0  0  0  0  0  0  0  0
  2  1  1  0  0  0  0
  3  1  2  0  0  0  0
  4  3  1  0  0  0  0
  5  4  2  0  0  0  0
  6  2  2  0  0  0  0
  6  5  1  0  0  0  0
  7  5  1  0  0  0  0
  8  1  1  0  0  0  0
  9  3  1  0  0  0  0
 10  7  1  0  0  0  0
 11 14  1  0  0  0  0
 11 15  2  0  0  0  0
 12 10  2  0  0  0  0
 13 10  1  0  0  0  0
 14 13  2  0  0  0  0
 15 12  1  0  0  0  0
 16  8  2  0  0  0  0
 17  8  1  0  0  0  0
 18  9  1  0  0  0  0
 19  9  2  0  0  0  0
 20 11  1  0  0  0  0
 21 20  1  0  0  0  0
 22 23  1  0  0  0  0
 23 24  1  0  0  0  0
 24 21  1  0  0  0  0
 25 22  1  0  0  0  0
 26 17  2  0  0  0  0
 27 16  1  0  0  0  0
 28 18  2  0  0  0  0
 29 19  1  0  0  0  0
 30 29  2  0  0  0  0
 30 28  1  0  0  0  0
 31 26  1  0  0  0  0
 31 27  2  0  0  0  0
M  END
>  <ID>
5340560

>  <Supplier>
ChemBridge

>  <clogP>
9.030000000000001e+000

>  <RB>
7

>  <tPSA>
5.070000000000000e+001

>  <Hacc>
3

>  <Hdon>
1

>  <LogSw>
-9.890000000000002e+000

>  <Group>
1

$$$$
5340562
 OpenBabel03312015312D

 15 16  0  0  0  0  0  0  0  0999 V2000
   -3.2000    0.0458    0.0000 C   0  0  0  0  0  0  0  0  0  0  0  0
   -3.9583   -0.3792    0.0000 N   0  0  0  0  0  0  0  0  0  0  0  0
   -3.1958    0.8958    0.0000 N   0  0  0  0  0  0  0  0  0  0  0  0
   -4.6958    0.0500    0.0000 C   0  0  0  0  0  0  0  0  0  0  0  0
   -4.6833    0.9125    0.0000 C   0  0  0  0  0  0  0  0  0  0  0  0
   -2.4500   -0.3875    0.0000 N   0  0  0  0  0  0  0  0  0  0  0  0
   -3.9458    1.3458    0.0000 C   0  0  0  0  0  0  0  0  0  0  0  0
   -5.4708   -0.3792    0.0000 O   0  0  0  0  0  0  0  0  0  0  0  0
   -1.7125    0.0458    0.0000 C   0  0  0  0  0  0  0  0  0  0  0  0
   -3.9458    2.2083    0.0000 C   0  0  0  0  0  0  0  0  0  0  0  0
   -1.7208    0.8958    0.0000 C   0  0  0  0  0  0  0  0  0  0  0  0
   -0.9625   -0.3792    0.0000 C   0  0  0  0  0  0  0  0  0  0  0  0
   -0.9833    1.3208    0.0000 C   0  0  0  0  0  0  0  0  0  0  0  0
   -0.2333    0.0500    0.0000 C   0  0  0  0  0  0  0  0  0  0  0  0
   -0.2458    0.9125    0.0000 C   0  0  0  0  0  0  0  0  0  0  0  0
  2  1  2  0  0  0  0
  3  1  1  0  0  0  0
  4  2  1  0  0  0  0
  4  5  2  0  0  0  0
  5  7  1  0  0  0  0
  6  1  1  0  0  0  0
  7  3  2  0  0  0  0
  8  4  1  0  0  0  0
  9  6  1  0  0  0  0
 10  7  1  0  0  0  0
 11  9  1  0  0  0  0
 12  9  2  0  0  0  0
 13 11  2  0  0  0  0
 13 15  1  0  0  0  0
 14 12  1  0  0  0  0
 15 14  2  0  0  0  0
M  END
>  <ID>
5340562

>  <Supplier>
ChemBridge

>  <clogP>
3.600000000000000e+000

>  <RB>
2

>  <tPSA>
5.803999999999999e+001

>  <Hacc>
3

>  <Hdon>
2

>  <LogSw>
-3.743000000000000e+000

>  <Group>
3

$$$$
5340563
 OpenBabel03312015312D

 16 17  0  0  0  0  0  0  0  0999 V2000
   -4.0000   -0.3667    0.0000 N   0  0  0  0  0  0  0  0  0  0  0  0
   -3.2500    0.0500    0.0000 C   0  0  0  0  0  0  0  0  0  0  0  0
   -4.7458    0.0625    0.0000 C   0  0  0  0  0  0  0  0  0  0  0  0
   -3.2500    0.9333    0.0000 N   0  0  0  0  0  0  0  0  0  0  0  0
   -4.7458    0.9208    0.0000 C   0  0  0  0  0  0  0  0  0  0  0  0
   -2.4958   -0.4042    0.0000 N   0  0  0  0  0  0  0  0  0  0  0  0
   -4.0000    1.3500    0.0000 C   0  0  0  0  0  0  0  0  0  0  0  0
   -5.4958   -0.3875    0.0000 O   0  0  0  0  0  0  0  0  0  0  0  0
   -1.7458    0.0125    0.0000 C   0  0  0  0  0  0  0  0  0  0  0  0
   -1.0125   -0.4167    0.0000 C   0  0  0  0  0  0  0  0  0  0  0  0
   -4.0000    2.2125    0.0000 C   0  0  0  0  0  0  0  0  0  0  0  0
   -0.2708    0.0125    0.0000 C   0  0  0  0  0  0  0  0  0  0  0  0
   -1.0208   -1.2792    0.0000 C   0  0  0  0  0  0  0  0  0  0  0  0
    0.4792   -0.4042    0.0000 C   0  0  0  0  0  0  0  0  0  0  0  0
   -0.2833   -1.7042    0.0000 C   0  0  0  0  0  0  0  0  0  0  0  0
    0.4667   -1.2875    0.0000 C   0  0  0  0  0  0  0  0  0  0  0  0
  2  1  2  0  0  0  0
  3  1  1  0  0  0  0
  4  2  1  0  0  0  0
  4  7  2  0  0  0  0
  5  3  2  0  0  0  0
  6  2  1  0  0  0  0
  7  5  1  0  0  0  0
  8  3  1  0  0  0  0
  9  6  1  0  0  0  0
 10  9  1  0  0  0  0
 11  7  1  0  0  0  0
 12 10  1  0  0  0  0
 13 10  2  0  0  0  0
 14 12  2  0  0  0  0
 15 13  1  0  0  0  0
 16 15  2  0  0  0  0
 16 14  1  0  0  0  0
M  END
>  <ID>
5340563

>  <Supplier>
ChemBridge

>  <clogP>
2.970000000000000e+000

>  <RB>
3

>  <tPSA>
5.803999999999999e+001

>  <Hacc>
3

>  <Hdon>
2

>  <LogSw>
-3.307000000000000e+000

>  <Group>
1

$$$$
5466320
 OpenBabel03312015312D

 20 21  0  0  0  0  0  0  0  0999 V2000
   -2.6333    0.8000    0.0000 C   0  0  0  0  0  0  0  0  0  0  0  0
   -1.0500    0.8125    0.0000 C   0  0  0  0  0  0  0  0  0  0  0  0
   -1.8333    0.3708    0.0000 C   0  0  0  0  0  0  0  0  0  0  0  0
   -0.1958    0.5333    0.0000 O   0  0  0  0  0  0  0  0  0  0  0  0
   -3.5000    0.5333    0.0000 O   0  0  0  0  0  0  0  0  0  0  0  0
   -1.8333   -0.5500    0.0000 C   0  0  0  0  0  0  0  0  0  0  0  0
   -1.0500    1.7333    0.0000 C   0  0  0  0  0  0  0  0  0  0  0  0
   -2.6333    1.7208    0.0000 C   0  0  0  0  0  0  0  0  0  0  0  0
   -4.0208    1.2708    0.0000 C   0  0  0  0  0  0  0  0  0  0  0  0
    0.3292    1.2708    0.0000 C   0  0  0  0  0  0  0  0  0  0  0  0
   -0.1958    2.0208    0.0000 C   0  0  0  0  0  0  0  0  0  0  0  0
   -3.4708    1.9958    0.0000 C   0  0  0  0  0  0  0  0  0  0  0  0
   -1.0500   -1.0042    0.0000 C   0  0  0  0  0  0  0  0  0  0  0  0
   -2.6125   -1.0042    0.0000 C   0  0  0  0  0  0  0  0  0  0  0  0
   -2.6125   -1.9042    0.0000 O   0  0  0  0  0  0  0  0  0  0  0  0
   -1.0500   -1.9042    0.0000 O   0  0  0  0  0  0  0  0  0  0  0  0
    1.2375    1.2708    0.0000 C   0  0  0  0  0  0  0  0  0  0  0  0
   -4.9333    1.2708    0.0000 C   0  0  0  0  0  0  0  0  0  0  0  0
   -0.2708   -0.5667    0.0000 C   0  0  0  0  0  0  0  0  0  0  0  0
   -3.3958   -0.5667    0.0000 C   0  0  0  0  0  0  0  0  0  0  0  0
  2  3  1  0  0  0  0
  3  1  1  0  0  0  0
  4  2  1  0  0  0  0
  5  1  1  0  0  0  0
  6  3  1  0  0  0  0
  7  2  2  0  0  0  0
  8  1  2  0  0  0  0
  9  5  1  0  0  0  0
 10  4  1  0  0  0  0
 11  7  1  0  0  0  0
 11 10  2  0  0  0  0
 12  8  1  0  0  0  0
 12  9  2  0  0  0  0
 13  6  1  0  0  0  0
 14  6  1  0  0  0  0
 15 14  2  0  0  0  0
 16 13  2  0  0  0  0
 17 10  1  0  0  0  0
 18  9  1  0  0  0  0
 19 13  1  0  0  0  0
 20 14  1  0  0  0  0
M  END
>  <ID>
5466320

>  <Supplier>
ChemBridge

>  <clogP>
2.270000000000000e+000

>  <RB>
5

>  <tPSA>
6.042000000000000e+001

>  <Hacc>
4

>  <Hdon>
0

>  <LogSw>
-3.140000000000000e+000

>  <Group>
3

$$$$
9080814
 OpenBabel03312015312D

 19 19  0  0  0  0  0  0  0  0999 V2000
    3.0292    1.8458    0.0000 S   0  0  0  0  0  0  0  0  0  0  0  0
    3.7792    1.8458    0.0000 C   0  0  0  0  0  0  0  0  0  0  0  0
    4.1542    1.1958    0.0000 C   0  0  0  0  0  0  0  0  0  0  0  0
    2.8417    2.5625    0.0000 N   0  0  0  0  0  0  0  0  0  0  0  0
    4.9042    1.1958    0.0000 C   0  0  0  0  0  0  0  0  0  0  0  0
    2.2917    1.7083    0.0000 O   0  0  0  0  0  0  0  0  0  0  0  0
    3.1000    1.0958    0.0000 O   0  0  0  0  0  0  0  0  0  0  0  0
    4.1542    2.4875    0.0000 C   0  0  0  0  0  0  0  0  0  0  0  0
    5.2792    1.8458    0.0000 C   0  0  0  0  0  0  0  0  0  0  0  0
    4.9042    2.4875    0.0000 C   0  0  0  0  0  0  0  0  0  0  0  0
    6.0292    1.8458    0.0000 O   0  0  0  0  0  0  0  0  0  0  0  0
    3.7792    0.5458    0.0000 C   0  0  0  0  0  0  0  0  0  0  0  0
    2.1167    2.7583    0.0000 C   0  0  3  0  0  0  0  0  0  0  0  0
    5.2792    0.5458    0.0000 C   0  0  0  0  0  0  0  0  0  0  0  0
    6.4042    2.4875    0.0000 C   0  0  0  0  0  0  0  0  0  0  0  0
    1.9167    3.4833    0.0000 C   0  0  0  0  0  0  0  0  0  0  0  0
    1.5875    2.2333    0.0000 C   0  0  0  0  0  0  0  0  0  0  0  0
    7.1542    2.4875    0.0000 C   0  0  0  0  0  0  0  0  0  0  0  0
    1.2000    3.6833    0.0000 C   0  0  0  0  0  0  0  0  0  0  0  0
  2  1  1  0  0  0  0
  3  2  1  0  0  0  0
  4  1  1  0  0  0  0
  5  3  2  0  0  0  0
  5  9  1  0  0  0  0
  6  1  2  0  0  0  0
  7  1  2  0  0  0  0
  8  2  2  0  0  0  0
  9 10  2  0  0  0  0
 10  8  1  0  0  0  0
 11  9  1  0  0  0  0
 12  3  1  0  0  0  0
 13  4  1  0  0  0  0
 14  5  1  0  0  0  0
 15 11  1  0  0  0  0
 16 13  1  0  0  0  0
 17 13  1  0  0  0  0
 18 15  1  0  0  0  0
 19 16  1  0  0  0  0
M  END
>  <ID>
9080814

>  <Supplier>
ChemBridge

>  <clogP>
4.043000000000000e+000

>  <RB>
2

>  <tPSA>
5.540000000000000e+001

>  <Hacc>
4

>  <Hdon>
1

>  <LogSw>
-4.734000000000000e+000

>  <Group>
2

$$$$
5348772
 OpenBabel03312015312D

 17 18  0  0  0  0  0  0  0  0999 V2000
   -1.7500    1.0000    0.0000 N   0  3  0  0  0  0  0  0  0  0  0  0
   -2.1125    0.3625    0.0000 N   0  5  0  0  0  0  0  0  0  0  0  0
   -2.8333    0.3625    0.0000 S   0  3  0  0  0  0  0  0  0  0  0  0
   -1.0125    1.0000    0.0000 O   0  5  0  0  0  0  0  0  0  0  0  0
   -2.1125    1.6458    0.0000 O   0  0  0  0  0  0  0  0  0  0  0  0
   -3.2000   -0.2667    0.0000 C   0  0  0  0  0  0  0  0  0  0  0  0
   -3.1833    0.9958    0.0000 C   0  0  0  0  0  0  0  0  0  0  0  0
   -2.8333   -0.9000    0.0000 C   0  0  0  0  0  0  0  0  0  0  0  0
   -3.9458   -0.2667    0.0000 C   0  0  0  0  0  0  0  0  0  0  0  0
   -2.8125    1.6208    0.0000 C   0  0  0  0  0  0  0  0  0  0  0  0
   -3.9125    0.9958    0.0000 C   0  0  0  0  0  0  0  0  0  0  0  0
   -4.3125   -0.9042    0.0000 C   0  0  0  0  0  0  0  0  0  0  0  0
   -3.1625    2.2708    0.0000 C   0  0  0  0  0  0  0  0  0  0  0  0
   -4.2708    1.6333    0.0000 C   0  0  0  0  0  0  0  0  0  0  0  0
   -3.2000   -1.5500    0.0000 C   0  0  0  0  0  0  0  0  0  0  0  0
   -3.9458   -1.5500    0.0000 C   0  0  0  0  0  0  0  0  0  0  0  0
   -3.8958    2.2708    0.0000 C   0  0  0  0  0  0  0  0  0  0  0  0
  2  1  1  0  0  0  0
  3  2  1  0  0  0  0
  4  1  1  0  0  0  0
  5  1  2  0  0  0  0
  6  3  1  0  0  0  0
  7  3  1  0  0  0  0
  8  6  1  0  0  0  0
  9  6  2  0  0  0  0
 10  7  2  0  0  0  0
 11  7  1  0  0  0  0
 12  9  1  0  0  0  0
 13 10  1  0  0  0  0
 13 17  2  0  0  0  0
 14 11  2  0  0  0  0
 15  8  2  0  0  0  0
 16 12  2  0  0  0  0
 16 15  1  0  0  0  0
 17 14  1  0  0  0  0
M  CHG  4   1   1   2  -1   3   1   4  -1
M  END
>  <ID>
5348772

>  <Supplier>
ChemBridge

>  <clogP>
3.710000000000000e+000

>  <RB>
3

>  <tPSA>
5.724000000000000e+001

>  <Hacc>
3

>  <Hdon>
0

>  <LogSw>
-4.180000000000000e+000

>  <Group>
2

$$$$
6961746
 OpenBabel03312015312D

 26 28  0  0  0  0  0  0  0  0999 V2000
   11.1000   -1.0167    0.0000 C   0  0  0  0  0  0  0  0  0  0  0  0
   10.4750   -1.3917    0.0000 C   0  0  3  0  0  0  0  0  0  0  0  0
   11.0625   -0.2000    0.0000 C   0  0  0  0  0  0  0  0  0  0  0  0
   11.9042   -1.4042    0.0000 C   0  0  0  0  0  0  0  0  0  0  0  0
   11.1792   -2.6375    0.0000 C   0  0  0  0  0  0  0  0  0  0  0  0
   11.9042   -2.2250    0.0000 N   0  0  0  0  0  0  0  0  0  0  0  0
   10.4667   -2.2167    0.0000 N   0  0  0  0  0  0  0  0  0  0  0  0
    9.7625   -0.9792    0.0000 C   0  0  0  0  0  0  0  0  0  0  0  0
   11.7542    0.2500    0.0000 N   0  0  0  0  0  0  0  0  0  0  0  0
   11.1750   -3.4667    0.0000 S   0  0  0  0  0  0  0  0  0  0  0  0
   10.3292    0.1833    0.0000 O   0  0  0  0  0  0  0  0  0  0  0  0
    9.0417   -1.3792    0.0000 C   0  0  0  0  0  0  0  0  0  0  0  0
   11.7500    1.0750    0.0000 C   0  0  0  0  0  0  0  0  0  0  0  0
   12.6042   -0.9625    0.0000 C   0  0  0  0  0  0  0  0  0  0  0  0
   11.7375    2.7333    0.0000 C   0  0  0  0  0  0  0  0  0  0  0  0
   12.4625    1.4958    0.0000 C   0  0  0  0  0  0  0  0  0  0  0  0
   11.0167    1.4833    0.0000 C   0  0  0  0  0  0  0  0  0  0  0  0
   12.4542    2.3208    0.0000 C   0  0  0  0  0  0  0  0  0  0  0  0
   11.0167    2.3125    0.0000 C   0  0  0  0  0  0  0  0  0  0  0  0
    9.7667   -0.1500    0.0000 C   0  0  0  0  0  0  0  0  0  0  0  0
   11.7375    3.5583    0.0000 O   0  0  0  0  0  0  0  0  0  0  0  0
    9.0375   -2.2042    0.0000 C   0  0  0  0  0  0  0  0  0  0  0  0
    8.3292   -0.9542    0.0000 C   0  0  0  0  0  0  0  0  0  0  0  0
   12.5292    3.7750    0.0000 C   0  0  0  0  0  0  0  0  0  0  0  0
    9.0667    0.2708    0.0000 C   0  0  0  0  0  0  0  0  0  0  0  0
    8.3417   -0.1292    0.0000 C   0  0  0  0  0  0  0  0  0  0  0  0
  2  1  1  0  0  0  0
  3  1  1  0  0  0  0
  4  1  2  0  0  0  0
  5  6  1  0  0  0  0
  5  7  1  0  0  0  0
  6  4  1  0  0  0  0
  7  2  1  0  0  0  0
  8  2  1  0  0  0  0
  9  3  1  0  0  0  0
 10  5  2  0  0  0  0
 11  3  2  0  0  0  0
 12  8  1  0  0  0  0
 13  9  1  0  0  0  0
 14  4  1  0  0  0  0
 15 19  1  0  0  0  0
 15 18  2  0  0  0  0
 16 13  2  0  0  0  0
 17 13  1  0  0  0  0
 18 16  1  0  0  0  0
 19 17  2  0  0  0  0
 20  8  2  0  0  0  0
 21 15  1  0  0  0  0
 22 12  1  0  0  0  0
 23 12  2  0  0  0  0
 24 21  1  0  0  0  0
 25 20  1  0  0  0  0
 26 25  2  0  0  0  0
 26 23  1  0  0  0  0
M  END
>  <ID>
6961746

>  <Supplier>
ChemBridge

>  <clogP>
3.560000000000000e+000

>  <RB>
3

>  <tPSA>
6.239000000000002e+001

>  <Hacc>
2

>  <Hdon>
3

>  <LogSw>
-4.919000000000001e+000

>  <Group>
1

>  <Core>
073

$$$$
7158924
 OpenBabel03312015312D

 21 22  0  0  0  0  0  0  0  0999 V2000
    3.3042   -0.6125    0.0000 N   0  0  0  0  0  0  0  0  0  0  0  0
    2.5917   -1.0250    0.0000 C   0  0  0  0  0  0  0  0  0  0  0  0
    1.8750   -0.6125    0.0000 C   0  0  0  0  0  0  0  0  0  0  0  0
    1.1625   -1.0292    0.0000 C   0  0  0  0  0  0  0  0  0  0  0  0
   -1.6958    0.6208    0.0000 C   0  0  0  0  0  0  0  0  0  0  0  0
   -0.9833    0.2083    0.0000 C   0  0  0  0  0  0  0  0  0  0  0  0
    4.0250   -1.0167    0.0000 C   0  0  0  0  0  0  0  0  0  0  0  0
    3.2917    0.2125    0.0000 C   0  0  0  0  0  0  0  0  0  0  0  0
    2.5917   -1.8500    0.0000 O   0  0  0  0  0  0  0  0  0  0  0  0
   -0.2708    0.6208    0.0000 C   0  0  0  0  0  0  0  0  0  0  0  0
   -0.9750   -0.6250    0.0000 C   0  0  0  0  0  0  0  0  0  0  0  0
    0.4417   -0.6167    0.0000 C   0  0  0  0  0  0  0  0  0  0  0  0
    0.4500    0.2083    0.0000 C   0  0  0  0  0  0  0  0  0  0  0  0
   -0.2625   -1.0292    0.0000 C   0  0  0  0  0  0  0  0  0  0  0  0
    4.0125    0.6333    0.0000 C   0  0  0  0  0  0  0  0  0  0  0  0
    4.7375   -0.6042    0.0000 C   0  0  0  0  0  0  0  0  0  0  0  0
    4.7292    0.2250    0.0000 C   0  0  3  0  0  0  0  0  0  0  0  0
   -2.4125    0.2083    0.0000 C   0  0  0  0  0  0  0  0  0  0  0  0
   -2.1125    1.3333    0.0000 C   0  0  0  0  0  0  0  0  0  0  0  0
   -1.2875    1.3333    0.0000 C   0  0  0  0  0  0  0  0  0  0  0  0
    5.4417    0.6458    0.0000 C   0  0  0  0  0  0  0  0  0  0  0  0
  2  1  1  0  0  0  0
  3  2  1  0  0  0  0
  4  3  2  0  0  0  0
  5  6  1  0  0  0  0
  6 11  1  0  0  0  0
  6 10  2  0  0  0  0
  7  1  1  0  0  0  0
  8  1  1  0  0  0  0
  9  2  2  0  0  0  0
 10 13  1  0  0  0  0
 11 14  2  0  0  0  0
 12  4  1  0  0  0  0
 13 12  2  0  0  0  0
 14 12  1  0  0  0  0
 15  8  1  0  0  0  0
 16  7  1  0  0  0  0
 16 17  1  0  0  0  0
 17 15  1  0  0  0  0
 18  5  1  0  0  0  0
 19  5  1  0  0  0  0
 20  5  1  0  0  0  0
 21 17  1  0  0  0  0
M  END
>  <ID>
7158924

>  <Supplier>
ChemBridge

>  <clogP>
5.230000000000000e+000

>  <RB>
3

>  <tPSA>
2.031000000000000e+001

>  <Hacc>
1

>  <Hdon>
0

>  <LogSw>
-5.748000000000000e+000

>  <Group>
1

>  <Core>
435

$$$$
6437209
 OpenBabel03312015312D

 24 25  0  0  0  0  0  0  0  0999 V2000
   -3.6625    0.4833    0.0000 C   0  0  0  0  0  0  0  0  0  0  0  0
   -4.2333    0.8208    0.0000 C   0  0  0  0  0  0  0  0  0  0  0  0
   -3.0833    0.8208    0.0000 C   0  0  0  0  0  0  0  0  0  0  0  0
    3.0500    1.5500    0.0000 C   0  0  0  0  0  0  0  0  0  0  0  0
    2.3167    1.2958    0.0000 C   0  0  0  0  0  0  0  0  0  0  0  0
   -4.2333    1.4958    0.0000 C   0  0  0  0  0  0  0  0  0  0  0  0
   -3.0833    1.4958    0.0000 C   0  0  0  0  0  0  0  0  0  0  0  0
   -4.6833    0.5708    0.0000 Cl  0  0  0  0  0  0  0  0  0  0  0  0
   -3.6625    1.8333    0.0000 C   0  0  0  0  0  0  0  0  0  0  0  0
    3.1000    2.0000    0.0000 O   0  0  0  0  0  0  0  0  0  0  0  0
    1.8042    1.6958    0.0000 O   0  0  0  0  0  0  0  0  0  0  0  0
   -2.3625    1.8708    0.0000 O   0  0  0  0  0  0  0  0  0  0  0  0
   -0.1458    1.4125    0.0000 O   0  0  0  0  0  0  0  0  0  0  0  0
   -3.6500    0.1000    0.0000 C   0  0  0  0  0  0  0  0  0  0  0  0
    3.6500    1.0500    0.0000 C   0  0  0  0  0  0  0  0  0  0  0  0
    2.1792    0.5208    0.0000 C   0  0  0  0  0  0  0  0  0  0  0  0
    1.1667    1.4458    0.0000 C   0  0  0  0  0  0  0  0  0  0  0  0
   -1.6625    1.4458    0.0000 C   0  0  0  0  0  0  0  0  0  0  0  0
    0.5875    1.8958    0.0000 C   0  0  0  0  0  0  0  0  0  0  0  0
   -0.8625    1.8958    0.0000 C   0  0  0  0  0  0  0  0  0  0  0  0
    3.6375    2.2125    0.0000 C   0  0  0  0  0  0  0  0  0  0  0  0
   -3.1625   -0.0292    0.0000 C   0  0  0  0  0  0  0  0  0  0  0  0
    2.7667    0.0125    0.0000 C   0  0  0  0  0  0  0  0  0  0  0  0
    3.5042    0.2833    0.0000 C   0  0  0  0  0  0  0  0  0  0  0  0
  2  1  2  0  0  0  0
  3  1  1  0  0  0  0
  4  5  2  0  0  0  0
  5 11  1  0  0  0  0
  6  2  1  0  0  0  0
  7  3  2  0  0  0  0
  8  2  1  0  0  0  0
  9  7  1  0  0  0  0
  9  6  2  0  0  0  0
 10  4  1  0  0  0  0
 11 17  1  0  0  0  0
 12  7  1  0  0  0  0
 13 20  1  0  0  0  0
 14  1  1  0  0  0  0
 15  4  1  0  0  0  0
 16  5  1  0  0  0  0
 17 19  1  0  0  0  0
 18 12  1  0  0  0  0
 19 13  1  0  0  0  0
 20 18  1  0  0  0  0
 21 10  1  0  0  0  0
 22 14  1  0  0  0  0
 23 16  2  0  0  0  0
 24 23  1  0  0  0  0
 24 15  2  0  0  0  0
M  END
>  <ID>
6437209

>  <Supplier>
ChemBridge

>  <clogP>
5.430000000000002e+000

>  <RB>
8

>  <tPSA>
3.692000000000000e+001

>  <Hacc>
4

>  <Hdon>
0

>  <LogSw>
-6.395000000000000e+000

>  <Group>
1

>  <Core>
317

$$$$
5466324
 OpenBabel03312015312D

 23 26  0  0  0  0  0  0  0  0999 V2000
   -0.2000   -1.0000    0.0000 N   0  0  0  0  0  0  0  0  0  0  0  0
   -1.0708   -0.7167    0.0000 C   0  0  0  0  0  0  0  0  0  0  0  0
    0.3542   -0.2292    0.0000 N   0  0  0  0  0  0  0  0  0  0  0  0
   -1.0833    0.2208    0.0000 C   0  0  0  0  0  0  0  0  0  0  0  0
   -0.2125    0.5208    0.0000 C   0  0  0  0  0  0  0  0  0  0  0  0
   -1.8958    0.6625    0.0000 C   0  0  0  0  0  0  0  0  0  0  0  0
   -1.8708   -1.1792    0.0000 N   0  0  0  0  0  0  0  0  0  0  0  0
   -2.6833    0.1958    0.0000 N   0  0  0  0  0  0  0  0  0  0  0  0
    0.6000    1.6000    0.0000 C   0  0  0  0  0  0  0  0  0  0  0  0
   -1.1333    2.0625    0.0000 N   0  0  0  0  0  0  0  0  0  0  0  0
    1.3042    1.1333    0.0000 S   0  0  0  0  0  0  0  0  0  0  0  0
   -2.6708   -0.7042    0.0000 C   0  0  0  0  0  0  0  0  0  0  0  0
    0.0667   -1.8667    0.0000 C   0  0  0  0  0  0  0  0  0  0  0  0
   -0.3333    1.6000    0.0000 C   0  0  0  0  0  0  0  0  0  0  0  0
   -1.9125    1.5833    0.0000 N   0  0  0  0  0  0  0  0  0  0  0  0
    2.0000    1.6000    0.0000 C   0  0  0  0  0  0  0  0  0  0  0  0
    0.6000    2.3833    0.0000 C   0  0  0  0  0  0  0  0  0  0  0  0
    2.0000    2.3833    0.0000 C   0  0  0  0  0  0  0  0  0  0  0  0
    0.9792   -2.0792    0.0000 C   0  0  0  0  0  0  0  0  0  0  0  0
   -0.5500   -2.5542    0.0000 C   0  0  0  0  0  0  0  0  0  0  0  0
    1.2500   -2.9792    0.0000 C   0  0  0  0  0  0  0  0  0  0  0  0
   -0.2833   -3.4500    0.0000 C   0  0  0  0  0  0  0  0  0  0  0  0
    0.6042   -3.6542    0.0000 C   0  0  0  0  0  0  0  0  0  0  0  0
  2  1  1  0  0  0  0
  3  1  1  0  0  0  0
  4  2  2  0  0  0  0
  4  5  1  0  0  0  0
  5  3  2  0  0  0  0
  6  4  1  0  0  0  0
  7  2  1  0  0  0  0
  8 12  1  0  0  0  0
  8  6  2  0  0  0  0
  9 14  1  0  0  0  0
 10 15  1  0  0  0  0
 11  9  1  0  0  0  0
 12  7  2  0  0  0  0
 13  1  1  0  0  0  0
 14 10  2  0  0  0  0
 15  6  1  0  0  0  0
 16 11  1  0  0  0  0
 16 18  2  0  0  0  0
 17  9  2  0  0  0  0
 18 17  1  0  0  0  0
 19 13  1  0  0  0  0
 20 13  2  0  0  0  0
 21 19  2  0  0  0  0
 22 20  1  0  0  0  0
 23 22  2  0  0  0  0
 23 21  1  0  0  0  0
M  END
>  <ID>
5466324

>  <Supplier>
ChemBridge

>  <clogP>
3.900000000000000e+000

>  <RB>
4

>  <tPSA>
6.799000000000001e+001

>  <Hacc>
5

>  <Hdon>
1

>  <LogSw>
-4.866999999999998e+000

>  <Group>
2

>  <Core>
340

$$$$
9049527
 OpenBabel03312015312D

 22 24  0  0  0  0  0  0  0  0999 V2000
    7.2417    1.2708    0.0000 C   0  0  0  0  0  0  0  0  0  0  0  0
    5.7417    1.2708    0.0000 N   0  0  0  0  0  0  0  0  0  0  0  0
    6.8667    1.9208    0.0000 C   0  0  0  0  0  0  0  0  0  0  0  0
    6.8667    0.6208    0.0000 C   0  0  0  0  0  0  0  0  0  0  0  0
    4.6167    1.9208    0.0000 C   0  0  0  0  0  0  0  0  0  0  0  0
    7.6792    0.6583    0.0000 O   0  0  0  0  0  0  0  0  0  0  0  0
    7.6792    1.8750    0.0000 O   0  0  0  0  0  0  0  0  0  0  0  0
    3.8667    1.9208    0.0000 N   0  0  0  0  0  0  0  0  0  0  0  0
    4.9917    1.2708    0.0000 C   0  0  0  0  0  0  0  0  0  0  0  0
    4.9917    2.5708    0.0000 O   0  0  0  0  0  0  0  0  0  0  0  0
    6.1167    0.6208    0.0000 C   0  0  0  0  0  0  0  0  0  0  0  0
    6.1167    1.9208    0.0000 C   0  0  0  0  0  0  0  0  0  0  0  0
    3.4917    2.5708    0.0000 C   0  0  0  0  0  0  0  0  0  0  0  0
    1.2417    2.5708    0.0000 C   0  0  0  0  0  0  0  0  0  0  0  0
    2.7417    2.5708    0.0000 C   0  0  0  0  0  0  0  0  0  0  0  0
    0.4917    2.5708    0.0000 Cl  0  0  0  0  0  0  0  0  0  0  0  0
    1.6167    1.9208    0.0000 C   0  0  0  0  0  0  0  0  0  0  0  0
    1.6167    3.2208    0.0000 C   0  0  0  0  0  0  0  0  0  0  0  0
    2.3667    1.9208    0.0000 C   0  0  0  0  0  0  0  0  0  0  0  0
    2.3667    3.2208    0.0000 C   0  0  0  0  0  0  0  0  0  0  0  0
    8.3917    1.6458    0.0000 C   0  0  0  0  0  0  0  0  0  0  0  0
    8.3917    0.8958    0.0000 C   0  0  0  0  0  0  0  0  0  0  0  0
  2 11  1  0  0  0  0
  3  1  1  0  0  0  0
  4  1  1  0  0  0  0
  5  9  1  0  0  0  0
  6  1  1  0  0  0  0
  7  1  1  0  0  0  0
  8  5  1  0  0  0  0
  9  2  1  0  0  0  0
 10  5  2  0  0  0  0
 11  4  1  0  0  0  0
 12  3  1  0  0  0  0
 12  2  1  0  0  0  0
 13  8  1  0  0  0  0
 14 18  1  0  0  0  0
 15 13  1  0  0  0  0
 16 14  1  0  0  0  0
 17 19  1  0  0  0  0
 17 14  2  0  0  0  0
 18 20  2  0  0  0  0
 19 15  2  0  0  0  0
 20 15  1  0  0  0  0
 21  7  1  0  0  0  0
 22  6  1  0  0  0  0
 22 21  1  0  0  0  0
M  END
>  <ID>
9049527

>  <Supplier>
ChemBridge

>  <clogP>
1.784000000000000e+000

>  <RB>
4

>  <tPSA>
5.080000000000000e+001

>  <Hacc>
4

>  <Hdon>
1

>  <LogSw>
-3.342000000000000e+000

>  <Group>
3

$$$$
7409651
 OpenBabel03312015312D

 25 27  0  0  0  0  0  0  0  0999 V2000
    5.3000   -3.9250    0.0000 C   0  0  0  0  0  0  0  0  0  0  0  0
    3.9792   -3.6542    0.0000 N   0  0  0  0  0  0  0  0  0  0  0  0
    4.5292   -4.2667    0.0000 C   0  0  0  0  0  0  0  0  0  0  0  0
    4.4000   -2.9417    0.0000 N   0  0  0  0  0  0  0  0  0  0  0  0
    0.6917   -3.9792    0.0000 S   0  0  0  0  0  0  0  0  0  0  0  0
    5.2042   -3.1167    0.0000 C   0  0  0  0  0  0  0  0  0  0  0  0
    6.0167   -4.3292    0.0000 C   0  0  0  0  0  0  0  0  0  0  0  0
    1.5125   -3.9042    0.0000 C   0  0  0  0  0  0  0  0  0  0  0  0
    3.1542   -3.7375    0.0000 C   0  0  0  0  0  0  0  0  0  0  0  0
    6.0167   -5.1542    0.0000 C   0  0  0  0  0  0  0  0  0  0  0  0
    0.7667   -4.7917    0.0000 O   0  0  0  0  0  0  0  0  0  0  0  0
    0.6042   -3.1542    0.0000 O   0  0  0  0  0  0  0  0  0  0  0  0
    4.3625   -5.0792    0.0000 O   0  0  0  0  0  0  0  0  0  0  0  0
   -0.1333   -4.0542    0.0000 N   0  0  0  0  0  0  0  0  0  0  0  0
    6.7375   -5.5667    0.0000 C   0  0  0  0  0  0  0  0  0  0  0  0
    1.8542   -3.1500    0.0000 C   0  0  0  0  0  0  0  0  0  0  0  0
    1.9917   -4.5750    0.0000 C   0  0  0  0  0  0  0  0  0  0  0  0
    2.6750   -3.0667    0.0000 C   0  0  0  0  0  0  0  0  0  0  0  0
    2.8167   -4.4917    0.0000 C   0  0  0  0  0  0  0  0  0  0  0  0
    7.4542   -5.1417    0.0000 Cl  0  0  0  0  0  0  0  0  0  0  0  0
    5.8167   -2.5625    0.0000 C   0  0  0  0  0  0  0  0  0  0  0  0
    5.3125   -5.5750    0.0000 C   0  0  0  0  0  0  0  0  0  0  0  0
    6.7375   -6.4000    0.0000 C   0  0  0  0  0  0  0  0  0  0  0  0
    5.3125   -6.4000    0.0000 C   0  0  0  0  0  0  0  0  0  0  0  0
    6.0167   -6.8125    0.0000 C   0  0  0  0  0  0  0  0  0  0  0  0
  2  3  1  0  0  0  0
  3  1  1  0  0  0  0
  4  6  2  0  0  0  0
  4  2  1  0  0  0  0
  5  8  1  0  0  0  0
  6  1  1  0  0  0  0
  7  1  2  0  0  0  0
  8 17  1  0  0  0  0
  9  2  1  0  0  0  0
 10  7  1  0  0  0  0
 11  5  2  0  0  0  0
 12  5  2  0  0  0  0
 13  3  2  0  0  0  0
 14  5  1  0  0  0  0
 15 10  2  0  0  0  0
 16 18  1  0  0  0  0
 16  8  2  0  0  0  0
 17 19  2  0  0  0  0
 18  9  2  0  0  0  0
 19  9  1  0  0  0  0
 20 15  1  0  0  0  0
 21  6  1  0  0  0  0
 22 10  1  0  0  0  0
 23 15  1  0  0  0  0
 24 22  2  0  0  0  0
 25 24  1  0  0  0  0
 25 23  2  0  0  0  0
M  END
>  <ID>
7409651

>  <Supplier>
ChemBridge

>  <clogP>
2.139000000000000e+000

>  <RB>
3

>  <tPSA>
9.283000000000000e+001

>  <Hacc>
5

>  <Hdon>
1

>  <LogSw>
-5.035000000000000e+000

>  <Group>
2

>  <Core>
046

$$$$
5174872
 OpenBabel03312015312D

 19 19  0  0  0  0  0  0  0  0999 V2000
   -3.4833    0.0500    0.0000 C   0  0  0  0  0  0  0  0  0  0  0  0
    0.8542   -0.4500    0.0000 C   0  0  0  0  0  0  0  0  0  0  0  0
   -0.0208    0.0500    0.0000 N   0  0  0  0  0  0  0  0  0  0  0  0
   -3.4833    1.0500    0.0000 O   0  0  0  0  0  0  0  0  0  0  0  0
   -2.6208   -0.4500    0.0000 O   0  0  0  0  0  0  0  0  0  0  0  0
    0.8542   -1.4500    0.0000 O   0  0  0  0  0  0  0  0  0  0  0  0
   -4.3458   -0.4500    0.0000 N   0  0  0  0  0  0  0  0  0  0  0  0
    2.5792   -0.4500    0.0000 O   0  0  0  0  0  0  0  0  0  0  0  0
    1.7167    0.0500    0.0000 C   0  0  0  0  0  0  0  0  0  0  0  0
   -0.8833   -0.4500    0.0000 C   0  0  0  0  0  0  0  0  0  0  0  0
    3.4542    0.0708    0.0000 C   0  0  0  0  0  0  0  0  0  0  0  0
   -1.7458    0.0500    0.0000 C   0  0  3  0  0  0  0  0  0  0  0  0
   -5.2083    0.0500    0.0000 C   0  0  0  0  0  0  0  0  0  0  0  0
    4.3167   -0.4500    0.0000 C   0  0  0  0  0  0  0  0  0  0  0  0
    3.4542    1.0708    0.0000 C   0  0  0  0  0  0  0  0  0  0  0  0
   -1.7458    1.0500    0.0000 C   0  0  0  0  0  0  0  0  0  0  0  0
    4.3167    1.5708    0.0000 C   0  0  0  0  0  0  0  0  0  0  0  0
    5.1792    0.0708    0.0000 C   0  0  0  0  0  0  0  0  0  0  0  0
    5.1792    1.0708    0.0000 C   0  0  0  0  0  0  0  0  0  0  0  0
  2  3  1  0  0  0  0
  3 10  1  0  0  0  0
  4  1  2  0  0  0  0
  5  1  1  0  0  0  0
  6  2  2  0  0  0  0
  7  1  1  0  0  0  0
  8  9  1  0  0  0  0
  9  2  1  0  0  0  0
 10 12  1  0  0  0  0
 11  8  1  0  0  0  0
 12  5  1  0  0  0  0
 13  7  1  0  0  0  0
 14 11  1  0  0  0  0
 15 11  2  0  0  0  0
 16 12  1  0  0  0  0
 17 15  1  0  0  0  0
 18 14  2  0  0  0  0
 18 19  1  0  0  0  0
 19 17  2  0  0  0  0
M  END
>  <ID>
5174872

>  <Supplier>
ChemBridge

>  <clogP>
1.440000000000000e+000

>  <RB>
7

>  <tPSA>
7.666000000000000e+001

>  <Hacc>
4

>  <Hdon>
2

>  <LogSw>
-2.371999999999999e+000

>  <Group>
3

>  <Core>
315

$$$$
5174871
 OpenBabel03312015312D

 15 15  0  0  0  0  0  0  0  0999 V2000
   -0.3000    1.3000    0.0000 C   0  0  0  0  0  0  0  0  0  0  0  0
   -1.0458    0.8833    0.0000 N   0  0  0  0  0  0  0  0  0  0  0  0
   -0.3000    2.1458    0.0000 O   0  0  0  0  0  0  0  0  0  0  0  0
    0.4000    0.0458    0.0000 O   0  0  0  0  0  0  0  0  0  0  0  0
    0.4167    0.8833    0.0000 C   0  0  0  0  0  0  0  0  0  0  0  0
   -1.0458    0.0458    0.0000 C   0  0  0  0  0  0  0  0  0  0  0  0
    1.1375   -0.4000    0.0000 C   0  0  0  0  0  0  0  0  0  0  0  0
   -2.4833    0.0458    0.0000 O   0  0  0  0  0  0  0  0  0  0  0  0
   -1.7625   -0.3792    0.0000 C   0  0  3  0  0  0  0  0  0  0  0  0
    1.8542    0.0208    0.0000 C   0  0  0  0  0  0  0  0  0  0  0  0
    1.1375   -1.2375    0.0000 C   0  0  0  0  0  0  0  0  0  0  0  0
   -1.7625   -1.2375    0.0000 C   0  0  0  0  0  0  0  0  0  0  0  0
    2.5792   -0.4000    0.0000 C   0  0  0  0  0  0  0  0  0  0  0  0
    1.8542   -1.6542    0.0000 C   0  0  0  0  0  0  0  0  0  0  0  0
    2.5792   -1.2375    0.0000 C   0  0  0  0  0  0  0  0  0  0  0  0
  2  1  1  0  0  0  0
  3  1  2  0  0  0  0
  4  5  1  0  0  0  0
  5  1  1  0  0  0  0
  6  2  1  0  0  0  0
  7  4  1  0  0  0  0
  8  9  1  0  0  0  0
  9  6  1  0  0  0  0
 10  7  1  0  0  0  0
 11  7  2  0  0  0  0
 12  9  1  0  0  0  0
 13 10  2  0  0  0  0
 13 15  1  0  0  0  0
 14 11  1  0  0  0  0
 15 14  2  0  0  0  0
M  END
>  <ID>
5174871

>  <Supplier>
ChemBridge

>  <clogP>
8.000000000000000e-001

>  <RB>
5

>  <tPSA>
5.856000000000000e+001

>  <Hacc>
3

>  <Hdon>
2

>  <LogSw>
-1.411000000000000e+000

>  <Group>
2

>  <Core>
315

$$$$
9113584
 OpenBabel03312015312D

 19 20  0  0  0  0  0  0  0  0999 V2000
    2.9750    1.5208    0.0000 C   0  0  0  0  0  0  0  0  0  0  0  0
    3.3500    2.1708    0.0000 N   0  0  0  0  0  0  0  0  0  0  0  0
    4.1000    2.1708    0.0000 C   0  0  0  0  0  0  0  0  0  0  0  0
    3.3500    0.8708    0.0000 O   0  0  0  0  0  0  0  0  0  0  0  0
    2.2250    1.5208    0.0000 C   0  0  0  0  0  0  0  0  0  0  0  0
    4.4750    1.5208    0.0000 C   0  0  0  0  0  0  0  0  0  0  0  0
    0.7250    1.5208    0.0000 N   0  0  0  0  0  0  0  0  0  0  0  0
    5.2250    1.5208    0.0000 C   0  0  0  0  0  0  0  0  0  0  0  0
    5.6000    0.8708    0.0000 O   0  0  0  0  0  0  0  0  0  0  0  0
    5.2250    2.8208    0.0000 C   0  0  0  0  0  0  0  0  0  0  0  0
    1.1000    0.8708    0.0000 C   0  0  0  0  0  0  0  0  0  0  0  0
    1.1000    2.1708    0.0000 C   0  0  0  0  0  0  0  0  0  0  0  0
    4.4750    2.8208    0.0000 C   0  0  0  0  0  0  0  0  0  0  0  0
    1.8500    0.8708    0.0000 C   0  0  0  0  0  0  0  0  0  0  0  0
    1.8500    2.1708    0.0000 C   0  0  0  0  0  0  0  0  0  0  0  0
    5.6000    2.1708    0.0000 C   0  0  0  0  0  0  0  0  0  0  0  0
    6.3500    0.8708    0.0000 C   0  0  0  0  0  0  0  0  0  0  0  0
    6.7250    0.2208    0.0000 C   0  0  0  0  0  0  0  0  0  0  0  0
    7.4750    0.2208    0.0000 C   0  0  0  0  0  0  0  0  0  0  0  0
  2  1  1  0  0  0  0
  3  2  1  0  0  0  0
  4  1  2  0  0  0  0
  5  1  1  0  0  0  0
  6  3  2  0  0  0  0
  7 12  1  0  0  0  0
  8  6  1  0  0  0  0
  8 16  2  0  0  0  0
  9  8  1  0  0  0  0
 10 13  2  0  0  0  0
 11 14  1  0  0  0  0
 11  7  2  0  0  0  0
 12 15  2  0  0  0  0
 13  3  1  0  0  0  0
 14  5  2  0  0  0  0
 15  5  1  0  0  0  0
 16 10  1  0  0  0  0
 17  9  1  0  0  0  0
 18 17  1  0  0  0  0
 19 18  1  0  0  0  0
M  END
>  <ID>
9113584

>  <Supplier>
ChemBridge

>  <clogP>
2.929000000000000e+000

>  <RB>
3

>  <tPSA>
5.121999999999999e+001

>  <Hacc>
3

>  <Hdon>
1

>  <LogSw>
-3.571000000000000e+000

>  <Group>
2

$$$$
5174876
 OpenBabel03312015312D

 25 26  0  0  0  0  0  0  0  0999 V2000
   -0.9958   -0.6542    0.0000 C   0  0  0  0  0  0  0  0  0  0  0  0
   -1.6708   -1.0542    0.0000 N   0  0  0  0  0  0  0  0  0  0  0  0
    2.4042   -1.0542    0.0000 C   0  0  0  0  0  0  0  0  0  0  0  0
   -0.9958    0.1458    0.0000 O   0  0  0  0  0  0  0  0  0  0  0  0
   -0.3125   -1.0542    0.0000 O   0  0  0  0  0  0  0  0  0  0  0  0
    1.7292   -0.6542    0.0000 N   0  0  0  0  0  0  0  0  0  0  0  0
   -2.3500   -0.6542    0.0000 C   0  0  0  0  0  0  0  0  0  0  0  0
   -3.0333   -1.0542    0.0000 C   0  0  0  0  0  0  0  0  0  0  0  0
    2.4292   -1.8375    0.0000 O   0  0  0  0  0  0  0  0  0  0  0  0
    3.7500   -1.0375    0.0000 O   0  0  0  0  0  0  0  0  0  0  0  0
    3.0667   -0.6542    0.0000 C   0  0  0  0  0  0  0  0  0  0  0  0
   -3.7125   -0.6542    0.0000 C   0  0  0  0  0  0  0  0  0  0  0  0
    1.0500   -1.0542    0.0000 C   0  0  0  0  0  0  0  0  0  0  0  0
   -4.3958   -1.0542    0.0000 Cl  0  0  0  0  0  0  0  0  0  0  0  0
    4.4292   -0.6375    0.0000 C   0  0  0  0  0  0  0  0  0  0  0  0
    0.3667   -0.6542    0.0000 C   0  0  3  0  0  0  0  0  0  0  0  0
   -3.0333    0.5208    0.0000 C   0  0  0  0  0  0  0  0  0  0  0  0
   -2.3500    0.1458    0.0000 C   0  0  0  0  0  0  0  0  0  0  0  0
   -3.7125    0.1458    0.0000 C   0  0  0  0  0  0  0  0  0  0  0  0
    5.1042   -1.0167    0.0000 C   0  0  0  0  0  0  0  0  0  0  0  0
    4.4292    0.1625    0.0000 C   0  0  0  0  0  0  0  0  0  0  0  0
    0.3667    0.1458    0.0000 C   0  0  0  0  0  0  0  0  0  0  0  0
    5.7875   -0.6375    0.0000 C   0  0  0  0  0  0  0  0  0  0  0  0
    5.1042    0.5625    0.0000 C   0  0  0  0  0  0  0  0  0  0  0  0
    5.7875    0.1625    0.0000 C   0  0  0  0  0  0  0  0  0  0  0  0
  2  1  1  0  0  0  0
  3  6  1  0  0  0  0
  4  1  2  0  0  0  0
  5  1  1  0  0  0  0
  6 13  1  0  0  0  0
  7  2  1  0  0  0  0
  8  7  1  0  0  0  0
  9  3  2  0  0  0  0
 10 11  1  0  0  0  0
 11  3  1  0  0  0  0
 12  8  2  0  0  0  0
 13 16  1  0  0  0  0
 14 12  1  0  0  0  0
 15 10  1  0  0  0  0
 16  5  1  0  0  0  0
 17 18  1  0  0  0  0
 18  7  2  0  0  0  0
 19 17  2  0  0  0  0
 19 12  1  0  0  0  0
 20 15  1  0  0  0  0
 21 15  2  0  0  0  0
 22 16  1  0  0  0  0
 23 20  2  0  0  0  0
 23 25  1  0  0  0  0
 24 21  1  0  0  0  0
 25 24  2  0  0  0  0
M  END
>  <ID>
5174876

>  <Supplier>
ChemBridge

>  <clogP>
3.950000000000000e+000

>  <RB>
8

>  <tPSA>
7.666000000000000e+001

>  <Hacc>
4

>  <Hdon>
2

>  <LogSw>
-5.219000000000000e+000

>  <Group>
1

>  <Core>
315

$$$$
5174875
 OpenBabel03312015312D

 25 26  0  0  0  0  0  0  0  0999 V2000
   -0.9958   -0.6542    0.0000 C   0  0  0  0  0  0  0  0  0  0  0  0
   -1.6708   -1.0542    0.0000 N   0  0  0  0  0  0  0  0  0  0  0  0
   -2.3500   -0.6542    0.0000 C   0  0  0  0  0  0  0  0  0  0  0  0
    2.4042   -1.0542    0.0000 C   0  0  0  0  0  0  0  0  0  0  0  0
   -0.9958    0.1458    0.0000 O   0  0  0  0  0  0  0  0  0  0  0  0
   -0.3125   -1.0542    0.0000 O   0  0  0  0  0  0  0  0  0  0  0  0
    1.7292   -0.6542    0.0000 N   0  0  0  0  0  0  0  0  0  0  0  0
   -3.0333   -1.0542    0.0000 C   0  0  0  0  0  0  0  0  0  0  0  0
    2.4292   -1.8375    0.0000 O   0  0  0  0  0  0  0  0  0  0  0  0
    3.7500   -1.0375    0.0000 O   0  0  0  0  0  0  0  0  0  0  0  0
    3.0667   -0.6542    0.0000 C   0  0  0  0  0  0  0  0  0  0  0  0
   -3.0333   -1.8375    0.0000 Cl  0  0  0  0  0  0  0  0  0  0  0  0
    1.0500   -1.0542    0.0000 C   0  0  0  0  0  0  0  0  0  0  0  0
    4.4292   -0.6375    0.0000 C   0  0  0  0  0  0  0  0  0  0  0  0
    0.3667   -0.6542    0.0000 C   0  0  3  0  0  0  0  0  0  0  0  0
   -2.3500    0.1458    0.0000 C   0  0  0  0  0  0  0  0  0  0  0  0
   -3.7125   -0.6542    0.0000 C   0  0  0  0  0  0  0  0  0  0  0  0
    4.4292    0.1625    0.0000 C   0  0  0  0  0  0  0  0  0  0  0  0
    5.1042   -1.0167    0.0000 C   0  0  0  0  0  0  0  0  0  0  0  0
    0.3667    0.1458    0.0000 C   0  0  0  0  0  0  0  0  0  0  0  0
   -3.0333    0.5208    0.0000 C   0  0  0  0  0  0  0  0  0  0  0  0
   -3.7125    0.1458    0.0000 C   0  0  0  0  0  0  0  0  0  0  0  0
    5.1042    0.5625    0.0000 C   0  0  0  0  0  0  0  0  0  0  0  0
    5.7875   -0.6375    0.0000 C   0  0  0  0  0  0  0  0  0  0  0  0
    5.7875    0.1625    0.0000 C   0  0  0  0  0  0  0  0  0  0  0  0
  2  1  1  0  0  0  0
  3  2  1  0  0  0  0
  4  7  1  0  0  0  0
  5  1  2  0  0  0  0
  6  1  1  0  0  0  0
  7 13  1  0  0  0  0
  8  3  1  0  0  0  0
  9  4  2  0  0  0  0
 10 11  1  0  0  0  0
 11  4  1  0  0  0  0
 12  8  1  0  0  0  0
 13 15  1  0  0  0  0
 14 10  1  0  0  0  0
 15  6  1  0  0  0  0
 16  3  2  0  0  0  0
 17  8  2  0  0  0  0
 17 22  1  0  0  0  0
 18 14  2  0  0  0  0
 19 14  1  0  0  0  0
 20 15  1  0  0  0  0
 21 16  1  0  0  0  0
 22 21  2  0  0  0  0
 23 18  1  0  0  0  0
 24 19  2  0  0  0  0
 25 24  1  0  0  0  0
 25 23  2  0  0  0  0
M  END
>  <ID>
5174875

>  <Supplier>
ChemBridge

>  <clogP>
3.390000000000000e+000

>  <RB>
8

>  <tPSA>
7.666000000000000e+001

>  <Hacc>
4

>  <Hdon>
2

>  <LogSw>
-4.740000000000000e+000

>  <Group>
3

>  <Core>
315

$$$$
5174874
 OpenBabel03312015312D

 24 25  0  0  0  0  0  0  0  0999 V2000
   -0.9958   -0.6542    0.0000 C   0  0  0  0  0  0  0  0  0  0  0  0
   -1.6708   -1.0542    0.0000 N   0  0  0  0  0  0  0  0  0  0  0  0
    2.4042   -1.0542    0.0000 C   0  0  0  0  0  0  0  0  0  0  0  0
   -0.9958    0.1458    0.0000 O   0  0  0  0  0  0  0  0  0  0  0  0
   -0.3125   -1.0542    0.0000 O   0  0  0  0  0  0  0  0  0  0  0  0
    1.7292   -0.6542    0.0000 N   0  0  0  0  0  0  0  0  0  0  0  0
    2.4292   -1.8375    0.0000 O   0  0  0  0  0  0  0  0  0  0  0  0
    3.7500   -1.0375    0.0000 O   0  0  0  0  0  0  0  0  0  0  0  0
    3.0667   -0.6542    0.0000 C   0  0  0  0  0  0  0  0  0  0  0  0
   -2.3500   -0.6542    0.0000 C   0  0  0  0  0  0  0  0  0  0  0  0
    1.0500   -1.0542    0.0000 C   0  0  0  0  0  0  0  0  0  0  0  0
    4.4292   -0.6375    0.0000 C   0  0  0  0  0  0  0  0  0  0  0  0
    0.3667   -0.6542    0.0000 C   0  0  3  0  0  0  0  0  0  0  0  0
   -2.3500    0.1458    0.0000 C   0  0  0  0  0  0  0  0  0  0  0  0
   -3.0333   -1.0542    0.0000 C   0  0  0  0  0  0  0  0  0  0  0  0
    4.4292    0.1625    0.0000 C   0  0  0  0  0  0  0  0  0  0  0  0
    5.1042   -1.0167    0.0000 C   0  0  0  0  0  0  0  0  0  0  0  0
    0.3667    0.1458    0.0000 C   0  0  0  0  0  0  0  0  0  0  0  0
    5.1042    0.5625    0.0000 C   0  0  0  0  0  0  0  0  0  0  0  0
   -3.0333    0.5208    0.0000 C   0  0  0  0  0  0  0  0  0  0  0  0
   -3.7125   -0.6542    0.0000 C   0  0  0  0  0  0  0  0  0  0  0  0
    5.7875   -0.6375    0.0000 C   0  0  0  0  0  0  0  0  0  0  0  0
    5.7875    0.1625    0.0000 C   0  0  0  0  0  0  0  0  0  0  0  0
   -3.7125    0.1458    0.0000 C   0  0  0  0  0  0  0  0  0  0  0  0
  2  1  1  0  0  0  0
  3  6  1  0  0  0  0
  4  1  2  0  0  0  0
  5  1  1  0  0  0  0
  6 11  1  0  0  0  0
  7  3  2  0  0  0  0
  8  9  1  0  0  0  0
  9  3  1  0  0  0  0
 10  2  1  0  0  0  0
 11 13  1  0  0  0  0
 12  8  1  0  0  0  0
 13  5  1  0  0  0  0
 14 10  2  0  0  0  0
 15 10  1  0  0  0  0
 16 12  2  0  0  0  0
 17 12  1  0  0  0  0
 18 13  1  0  0  0  0
 19 16  1  0  0  0  0
 19 23  2  0  0  0  0
 20 14  1  0  0  0  0
 21 15  2  0  0  0  0
 22 17  2  0  0  0  0
 23 22  1  0  0  0  0
 24 21  1  0  0  0  0
 24 20  2  0  0  0  0
M  END
>  <ID>
5174874

>  <Supplier>
ChemBridge

>  <clogP>
3.020000000000000e+000

>  <RB>
8

>  <tPSA>
7.666000000000000e+001

>  <Hacc>
4

>  <Hdon>
2

>  <LogSw>
-4.174000000000000e+000

>  <Group>
3

>  <Core>
315

$$$$
9146037
 OpenBabel03312015312D

 25 27  0  0  0  0  0  0  0  0999 V2000
    2.5875    2.4125    0.0000 C   0  0  0  0  0  0  0  0  0  0  0  0
    5.2125    1.7625    0.0000 C   0  0  0  0  0  0  0  0  0  0  0  0
    2.9625    3.0625    0.0000 N   0  0  0  0  0  0  0  0  0  0  0  0
    5.9625    1.7625    0.0000 N   0  0  0  0  0  0  0  0  0  0  0  0
    4.8375    2.4125    0.0000 C   0  0  0  0  0  0  0  0  0  0  0  0
    1.8375    2.4125    0.0000 N   0  0  0  0  0  0  0  0  0  0  0  0
    2.9625    1.7625    0.0000 O   0  0  0  0  0  0  0  0  0  0  0  0
    4.0875    2.4125    0.0000 C   0  0  0  0  0  0  0  0  0  0  0  0
    3.7125    3.0625    0.0000 C   0  0  0  0  0  0  0  0  0  0  0  0
    4.8375    1.1125    0.0000 O   0  0  0  0  0  0  0  0  0  0  0  0
    7.5292    0.5083    0.0000 O   0  0  0  0  0  0  0  0  0  0  0  0
    6.3375    1.1125    0.0000 C   0  0  0  0  0  0  0  0  0  0  0  0
    1.4625    1.7625    0.0000 C   0  0  0  0  0  0  0  0  0  0  0  0
    7.0875    1.1125    0.0000 C   0  0  3  0  0  0  0  0  0  0  0  0
    5.2125    3.0625    0.0000 C   0  0  0  0  0  0  0  0  0  0  0  0
    4.8375    3.7125    0.0000 C   0  0  0  0  0  0  0  0  0  0  0  0
    4.0875    3.7125    0.0000 C   0  0  0  0  0  0  0  0  0  0  0  0
    8.2417    0.7375    0.0000 C   0  0  0  0  0  0  0  0  0  0  0  0
    0.7125    1.7625    0.0000 C   0  0  0  0  0  0  0  0  0  0  0  0
    1.8375    1.1125    0.0000 C   0  0  0  0  0  0  0  0  0  0  0  0
    7.5292    1.7208    0.0000 C   0  0  0  0  0  0  0  0  0  0  0  0
    8.2417    1.4875    0.0000 C   0  0  0  0  0  0  0  0  0  0  0  0
    1.4625    0.4708    0.0000 C   0  0  0  0  0  0  0  0  0  0  0  0
    0.3375    1.1125    0.0000 C   0  0  0  0  0  0  0  0  0  0  0  0
    0.7125    0.4708    0.0000 C   0  0  0  0  0  0  0  0  0  0  0  0
  2  5  1  0  0  0  0
  3  1  1  0  0  0  0
  4  2  1  0  0  0  0
  5  8  2  0  0  0  0
  6  1  1  0  0  0  0
  7  1  2  0  0  0  0
  8  9  1  0  0  0  0
  9  3  1  0  0  0  0
 10  2  2  0  0  0  0
 11 14  1  0  0  0  0
 12  4  1  0  0  0  0
 13  6  1  0  0  0  0
 14 12  1  0  0  0  0
 15 16  2  0  0  0  0
 15  5  1  0  0  0  0
 16 17  1  0  0  0  0
 17  9  2  0  0  0  0
 18 11  1  0  0  0  0
 19 13  2  0  0  0  0
 20 13  1  0  0  0  0
 21 14  1  0  0  0  0
 22 21  1  0  0  0  0
 22 18  1  0  0  0  0
 23 20  2  0  0  0  0
 24 19  1  0  0  0  0
 25 23  1  0  0  0  0
 25 24  2  0  0  0  0
M  END
>  <ID>
9146037

>  <Supplier>
ChemBridge

>  <clogP>
2.715000000000000e+000

>  <RB>
5

>  <tPSA>
7.945999999999999e+001

>  <Hacc>
3

>  <Hdon>
3

>  <LogSw>
-3.993000000000000e+000

>  <Group>
2

$$$$
7785109
 OpenBabel03312015312D

 27 29  0  0  0  0  0  0  0  0999 V2000
    4.2292    1.9625    0.0000 N   0  0  0  0  0  0  0  0  0  0  0  0
    4.4792    2.7458    0.0000 C   0  0  0  0  0  0  0  0  0  0  0  0
    5.3042    2.7458    0.0000 N   0  0  0  0  0  0  0  0  0  0  0  0
    4.9042    1.4750    0.0000 C   0  0  0  0  0  0  0  0  0  0  0  0
    5.5667    1.9583    0.0000 N   0  0  0  0  0  0  0  0  0  0  0  0
    3.9917    3.4208    0.0000 C   0  0  0  0  0  0  0  0  0  0  0  0
    4.9042    0.6500    0.0000 S   0  0  0  0  0  0  0  0  0  0  0  0
    3.2125    0.4875    0.0000 C   0  0  0  0  0  0  0  0  0  0  0  0
    2.4917    0.0708    0.0000 N   0  0  0  0  0  0  0  0  0  0  0  0
    3.1667    3.3208    0.0000 C   0  0  0  0  0  0  0  0  0  0  0  0
    3.4417    1.7083    0.0000 C   0  0  0  0  0  0  0  0  0  0  0  0
    3.2042    1.3208    0.0000 O   0  0  0  0  0  0  0  0  0  0  0  0
    3.9292    0.0750    0.0000 C   0  0  0  0  0  0  0  0  0  0  0  0
    2.8250    2.2708    0.0000 C   0  0  0  0  0  0  0  0  0  0  0  0
    2.0417    2.0083    0.0000 C   0  0  0  0  0  0  0  0  0  0  0  0
    2.4917   -0.7542    0.0000 C   0  0  0  0  0  0  0  0  0  0  0  0
    2.4917   -2.4167    0.0000 C   0  0  0  0  0  0  0  0  0  0  0  0
    2.6875    3.9958    0.0000 C   0  0  0  0  0  0  0  0  0  0  0  0
    2.4917   -3.2417    0.0000 I   0  0  0  0  0  0  0  0  0  0  0  0
    1.7792   -1.1750    0.0000 C   0  0  0  0  0  0  0  0  0  0  0  0
    3.2042   -1.1750    0.0000 C   0  0  0  0  0  0  0  0  0  0  0  0
    3.2042   -2.0042    0.0000 C   0  0  0  0  0  0  0  0  0  0  0  0
    1.7792   -2.0042    0.0000 C   0  0  0  0  0  0  0  0  0  0  0  0
    4.3292    4.1542    0.0000 C   0  0  0  0  0  0  0  0  0  0  0  0
    3.8417    4.8292    0.0000 C   0  0  0  0  0  0  0  0  0  0  0  0
    3.0167    4.7417    0.0000 C   0  0  0  0  0  0  0  0  0  0  0  0
    1.8542    3.9083    0.0000 C   0  0  0  0  0  0  0  0  0  0  0  0
  2  1  1  0  0  0  0
  3  2  2  0  0  0  0
  4  1  1  0  0  0  0
  5  4  2  0  0  0  0
  5  3  1  0  0  0  0
  6  2  1  0  0  0  0
  7  4  1  0  0  0  0
  8 13  1  0  0  0  0
  9  8  1  0  0  0  0
 10  6  2  0  0  0  0
 11  1  1  0  0  0  0
 12  8  2  0  0  0  0
 13  7  1  0  0  0  0
 14 11  1  0  0  0  0
 15 14  2  0  0  0  0
 16  9  1  0  0  0  0
 17 22  2  0  0  0  0
 17 23  1  0  0  0  0
 18 10  1  0  0  0  0
 19 17  1  0  0  0  0
 20 16  1  0  0  0  0
 21 16  2  0  0  0  0
 22 21  1  0  0  0  0
 23 20  2  0  0  0  0
 24  6  1  0  0  0  0
 25 24  2  0  0  0  0
 26 25  1  0  0  0  0
 26 18  2  0  0  0  0
 27 18  1  0  0  0  0
M  END
>  <ID>
7785109

>  <Supplier>
ChemBridge

>  <clogP>
4.890000000000000e+000

>  <RB>
7

>  <tPSA>
5.981000000000002e+001

>  <Hacc>
3

>  <Hdon>
1

>  <LogSw>
-6.950000000000000e+000

>  <Group>
1

>  <Core>
009

$$$$
6955155
 OpenBabel03312015312D

 20 21  0  0  0  0  0  0  0  0999 V2000
    2.2875    0.4333    0.0000 S   0  0  0  0  0  0  0  0  0  0  0  0
   -3.0125   -0.6042    0.0000 C   0  0  0  0  0  0  0  0  0  0  0  0
   -4.2208   -0.6000    0.0000 C   0  0  0  0  0  0  0  0  0  0  0  0
    1.0875    0.4333    0.0000 C   0  0  0  0  0  0  0  0  0  0  0  0
    3.4500    0.4333    0.0000 N   0  0  0  0  0  0  0  0  0  0  0  0
   -5.2500   -1.1875    0.0000 C   0  0  0  0  0  0  0  0  0  0  0  0
   -5.2333   -0.0042    0.0000 C   0  0  0  0  0  0  0  0  0  0  0  0
   -2.4208    0.4333    0.0000 N   0  0  0  0  0  0  0  0  0  0  0  0
    2.2875   -0.7375    0.0000 O   0  0  0  0  0  0  0  0  0  0  0  0
    2.2875    1.6208    0.0000 O   0  0  0  0  0  0  0  0  0  0  0  0
   -2.4333   -1.6167    0.0000 O   0  0  0  0  0  0  0  0  0  0  0  0
    0.5042   -0.5667    0.0000 C   0  0  0  0  0  0  0  0  0  0  0  0
    0.5042    1.4500    0.0000 C   0  0  0  0  0  0  0  0  0  0  0  0
   -1.2458    0.4333    0.0000 C   0  0  0  0  0  0  0  0  0  0  0  0
   -0.6625   -0.5667    0.0000 C   0  0  0  0  0  0  0  0  0  0  0  0
   -0.6958    1.4500    0.0000 C   0  0  0  0  0  0  0  0  0  0  0  0
    4.0375    1.4500    0.0000 C   0  0  0  0  0  0  0  0  0  0  0  0
    4.0667   -0.6000    0.0000 C   0  0  0  0  0  0  0  0  0  0  0  0
    5.2500    1.4500    0.0000 C   0  0  0  0  0  0  0  0  0  0  0  0
    5.2500   -0.6000    0.0000 C   0  0  0  0  0  0  0  0  0  0  0  0
  2  8  1  0  0  0  0
  3  2  1  0  0  0  0
  4  1  1  0  0  0  0
  5  1  1  0  0  0  0
  6  3  1  0  0  0  0
  6  7  1  0  0  0  0
  7  3  1  0  0  0  0
  8 14  1  0  0  0  0
  9  1  2  0  0  0  0
 10  1  2  0  0  0  0
 11  2  2  0  0  0  0
 12  4  1  0  0  0  0
 13  4  2  0  0  0  0
 14 16  2  0  0  0  0
 15 12  2  0  0  0  0
 15 14  1  0  0  0  0
 16 13  1  0  0  0  0
 17  5  1  0  0  0  0
 18  5  1  0  0  0  0
 19 17  1  0  0  0  0
 20 18  1  0  0  0  0
M  END
>  <ID>
6955155

>  <Supplier>
ChemBridge

>  <clogP>
2.220000000000000e+000

>  <RB>
3

>  <tPSA>
6.647999999999998e+001

>  <Hacc>
4

>  <Hdon>
1

>  <LogSw>
-3.258000000000000e+000

>  <Group>
3

>  <Core>
234

$$$$
9146032
 OpenBabel03312015312D

 21 21  0  0  0  0  0  0  0  0999 V2000
    2.4167    2.2250    0.0000 C   0  0  0  0  0  0  0  0  0  0  0  0
    1.7667    1.8500    0.0000 N   0  0  0  0  0  0  0  0  0  0  0  0
    5.6667    1.8500    0.0000 C   0  0  0  0  0  0  0  0  0  0  0  0
    1.1167    2.2250    0.0000 C   0  0  0  0  0  0  0  0  0  0  0  0
    3.0667    1.8500    0.0000 N   0  0  0  0  0  0  0  0  0  0  0  0
    5.0167    2.2250    0.0000 C   0  0  0  0  0  0  0  0  0  0  0  0
    2.4167    2.9833    0.0000 S   0  0  0  0  0  0  0  0  0  0  0  0
    4.3667    1.8500    0.0000 C   0  0  0  0  0  0  0  0  0  0  0  0
    3.7167    2.2250    0.0000 C   0  0  0  0  0  0  0  0  0  0  0  0
    5.6667    1.1000    0.0000 O   0  0  0  0  0  0  0  0  0  0  0  0
    1.1167    2.9833    0.0000 O   0  0  0  0  0  0  0  0  0  0  0  0
    6.3167    2.2250    0.0000 N   0  0  0  0  0  0  0  0  0  0  0  0
    5.0167    2.9833    0.0000 C   0  0  0  0  0  0  0  0  0  0  0  0
    4.3667    3.3583    0.0000 C   0  0  0  0  0  0  0  0  0  0  0  0
    8.2625    1.8500    0.0000 O   0  0  0  0  0  0  0  0  0  0  0  0
    0.4667    1.8500    0.0000 C   0  0  0  0  0  0  0  0  0  0  0  0
    3.7167    2.9833    0.0000 C   0  0  0  0  0  0  0  0  0  0  0  0
    6.9667    1.8500    0.0000 C   0  0  0  0  0  0  0  0  0  0  0  0
    7.6167    2.2250    0.0000 C   0  0  0  0  0  0  0  0  0  0  0  0
    8.9125    2.2250    0.0000 C   0  0  0  0  0  0  0  0  0  0  0  0
   -0.1833    2.2250    0.0000 C   0  0  0  0  0  0  0  0  0  0  0  0
  2  1  1  0  0  0  0
  3  6  1  0  0  0  0
  4  2  1  0  0  0  0
  5  1  1  0  0  0  0
  6  8  2  0  0  0  0
  7  1  2  0  0  0  0
  8  9  1  0  0  0  0
  9  5  1  0  0  0  0
 10  3  2  0  0  0  0
 11  4  2  0  0  0  0
 12  3  1  0  0  0  0
 13 14  2  0  0  0  0
 13  6  1  0  0  0  0
 14 17  1  0  0  0  0
 15 19  1  0  0  0  0
 16  4  1  0  0  0  0
 17  9  2  0  0  0  0
 18 12  1  0  0  0  0
 19 18  1  0  0  0  0
 20 15  1  0  0  0  0
 21 16  1  0  0  0  0
M  END
>  <ID>
9146032

>  <Supplier>
ChemBridge

>  <clogP>
6.090000000000000e-001

>  <RB>
4

>  <tPSA>
7.945999999999999e+001

>  <Hacc>
3

>  <Hdon>
3

>  <LogSw>
-1.976000000000000e+000

>  <Group>
2

$$$$
9146033
 OpenBabel03312015312D

 25 27  0  0  0  0  0  0  0  0999 V2000
    6.3625    0.9708    0.0000 C   0  0  0  0  0  0  0  0  0  0  0  0
    5.9167    1.5708    0.0000 N   0  0  0  0  0  0  0  0  0  0  0  0
    5.9167    0.3583    0.0000 N   0  0  0  0  0  0  0  0  0  0  0  0
    5.2042    1.3458    0.0000 C   0  0  0  0  0  0  0  0  0  0  0  0
    5.2042    0.5958    0.0000 C   0  0  0  0  0  0  0  0  0  0  0  0
    2.6042    1.3458    0.0000 C   0  0  0  0  0  0  0  0  0  0  0  0
    3.2542    1.7208    0.0000 N   0  0  0  0  0  0  0  0  0  0  0  0
    7.1125    0.9708    0.0000 C   0  0  0  0  0  0  0  0  0  0  0  0
    4.5542    1.7208    0.0000 C   0  0  0  0  0  0  0  0  0  0  0  0
    7.4875    1.6208    0.0000 N   0  0  0  0  0  0  0  0  0  0  0  0
    4.5542    0.2208    0.0000 C   0  0  0  0  0  0  0  0  0  0  0  0
    3.9042    1.3458    0.0000 C   0  0  0  0  0  0  0  0  0  0  0  0
    2.6042    0.5958    0.0000 O   0  0  0  0  0  0  0  0  0  0  0  0
    8.2375    2.9125    0.0000 O   0  0  0  0  0  0  0  0  0  0  0  0
    1.9542    1.7208    0.0000 C   0  0  0  0  0  0  0  0  0  0  0  0
    3.9042    0.5958    0.0000 C   0  0  0  0  0  0  0  0  0  0  0  0
    6.1542   -0.3542    0.0000 C   0  0  0  0  0  0  0  0  0  0  0  0
    7.1125    2.2708    0.0000 C   0  0  0  0  0  0  0  0  0  0  0  0
    8.2375    1.6208    0.0000 C   0  0  0  0  0  0  0  0  0  0  0  0
    8.6125    2.2708    0.0000 C   0  0  0  0  0  0  0  0  0  0  0  0
    7.4875    2.9125    0.0000 C   0  0  0  0  0  0  0  0  0  0  0  0
    1.3042    1.3458    0.0000 C   0  0  0  0  0  0  0  0  0  0  0  0
    1.9542    2.4708    0.0000 C   0  0  0  0  0  0  0  0  0  0  0  0
    5.6500   -0.9125    0.0000 C   0  0  0  0  0  0  0  0  0  0  0  0
    5.8792   -1.6250    0.0000 C   0  0  0  0  0  0  0  0  0  0  0  0
  2  1  2  0  0  0  0
  3  1  1  0  0  0  0
  4  2  1  0  0  0  0
  5  3  1  0  0  0  0
  5  4  2  0  0  0  0
  6  7  1  0  0  0  0
  7 12  1  0  0  0  0
  8  1  1  0  0  0  0
  9  4  1  0  0  0  0
 10  8  1  0  0  0  0
 11  5  1  0  0  0  0
 12  9  2  0  0  0  0
 12 16  1  0  0  0  0
 13  6  2  0  0  0  0
 14 20  1  0  0  0  0
 15  6  1  0  0  0  0
 16 11  2  0  0  0  0
 17  3  1  0  0  0  0
 18 10  1  0  0  0  0
 19 10  1  0  0  0  0
 20 19  1  0  0  0  0
 21 18  1  0  0  0  0
 21 14  1  0  0  0  0
 22 15  1  0  0  0  0
 23 15  1  0  0  0  0
 24 17  1  0  0  0  0
 25 24  1  0  0  0  0
M  END
>  <ID>
9146033

>  <Supplier>
ChemBridge

>  <clogP>
2.873000000000000e+000

>  <RB>
3

>  <tPSA>
5.939000000000003e+001

>  <Hacc>
4

>  <Hdon>
1

>  <LogSw>
-4.164999999999996e+000

>  <Group>
2

>  <Core>
137

$$$$
9146030
 OpenBabel03312015312D

 32 35  0  0  0  0  0  0  0  0999 V2000
    4.4625    2.3958    0.0000 C   0  0  0  0  0  0  0  0  0  0  0  0
    4.8375    1.7375    0.0000 N   0  0  0  0  0  0  0  0  0  0  0  0
    4.8375    3.0458    0.0000 N   0  0  0  0  0  0  0  0  0  0  0  0
    5.9625    2.3958    0.0000 N   0  0  0  0  0  0  0  0  0  0  0  0
    5.5875    1.7375    0.0000 C   0  0  0  0  0  0  0  0  0  0  0  0
    5.5875    3.0458    0.0000 C   0  0  0  0  0  0  0  0  0  0  0  0
    8.9625    3.6875    0.0000 C   0  0  0  0  0  0  0  0  0  0  0  0
    1.4625    1.0875    0.0000 C   0  0  0  0  0  0  0  0  0  0  0  0
    8.2125    3.6875    0.0000 N   0  0  0  0  0  0  0  0  0  0  0  0
    9.3375    3.0458    0.0000 C   0  0  0  0  0  0  0  0  0  0  0  0
    6.7125    3.6875    0.0000 N   0  0  0  0  0  0  0  0  0  0  0  0
    2.2125    1.0875    0.0000 C   0  0  0  0  0  0  0  0  0  0  0  0
    3.7125    2.3958    0.0000 N   0  0  0  0  0  0  0  0  0  0  0  0
    9.0292    2.3583    0.0000 O   0  0  0  0  0  0  0  0  0  0  0  0
    5.9625    3.6875    0.0000 C   0  0  0  0  0  0  0  0  0  0  0  0
    9.3375    4.3292    0.0000 O   0  0  0  0  0  0  0  0  0  0  0  0
    2.5875    1.7375    0.0000 C   0  0  0  0  0  0  0  0  0  0  0  0
   10.0792    2.9583    0.0000 C   0  0  0  0  0  0  0  0  0  0  0  0
    7.8375    4.3292    0.0000 C   0  0  0  0  0  0  0  0  0  0  0  0
    7.8375    3.0458    0.0000 C   0  0  0  0  0  0  0  0  0  0  0  0
    3.3375    1.7375    0.0000 C   0  0  0  0  0  0  0  0  0  0  0  0
    9.5875    1.8500    0.0000 C   0  0  0  0  0  0  0  0  0  0  0  0
   10.2375    2.2250    0.0000 C   0  0  0  0  0  0  0  0  0  0  0  0
    1.2667    0.3625    0.0000 F   0  0  0  0  0  0  0  0  0  0  0  0
    1.5292    1.8375    0.0000 F   0  0  0  0  0  0  0  0  0  0  0  0
    0.7250    1.2208    0.0000 F   0  0  0  0  0  0  0  0  0  0  0  0
    5.9625    1.0875    0.0000 N   0  0  0  0  0  0  0  0  0  0  0  0
    7.0875    4.3292    0.0000 C   0  0  0  0  0  0  0  0  0  0  0  0
    7.0875    3.0458    0.0000 C   0  0  0  0  0  0  0  0  0  0  0  0
    2.5875    0.4375    0.0000 C   0  0  0  0  0  0  0  0  0  0  0  0
    3.3375    0.4375    0.0000 C   0  0  0  0  0  0  0  0  0  0  0  0
    3.7125    1.0875    0.0000 C   0  0  0  0  0  0  0  0  0  0  0  0
  2  1  1  0  0  0  0
  3  1  2  0  0  0  0
  4  6  2  0  0  0  0
  5  2  2  0  0  0  0
  5  4  1  0  0  0  0
  6  3  1  0  0  0  0
  7  9  1  0  0  0  0
  8 12  1  0  0  0  0
  9 20  1  0  0  0  0
 10  7  1  0  0  0  0
 11 15  1  0  0  0  0
 12 17  1  0  0  0  0
 13  1  1  0  0  0  0
 14 10  1  0  0  0  0
 15  6  1  0  0  0  0
 16  7  2  0  0  0  0
 17 21  2  0  0  0  0
 18 10  2  0  0  0  0
 19 28  1  0  0  0  0
 19  9  1  0  0  0  0
 20 29  1  0  0  0  0
 21 13  1  0  0  0  0
 22 14  1  0  0  0  0
 22 23  2  0  0  0  0
 23 18  1  0  0  0  0
 24  8  1  0  0  0  0
 25  8  1  0  0  0  0
 26  8  1  0  0  0  0
 27  5  1  0  0  0  0
 28 11  1  0  0  0  0
 29 11  1  0  0  0  0
 30 31  1  0  0  0  0
 30 12  2  0  0  0  0
 31 32  2  0  0  0  0
 32 21  1  0  0  0  0
M  END
>  <ID>
9146030

>  <Supplier>
ChemBridge

>  <clogP>
2.747000000000000e+000

>  <RB>
5

>  <tPSA>
1.134100000000000e+002

>  <Hacc>
6

>  <Hdon>
2

>  <LogSw>
-4.807000000000000e+000

>  <Group>
2

>  <Core>
426

$$$$
7250318
 OpenBabel03312015312D

 26 28  0  0  0  0  0  0  0  0999 V2000
    0.1500    0.7625    0.0000 C   0  0  0  0  0  0  0  0  0  0  0  0
   -2.4333    0.7625    0.0000 C   0  0  0  0  0  0  0  0  0  0  0  0
   -3.0708    0.3833    0.0000 N   0  0  0  0  0  0  0  0  0  0  0  0
    0.1500    1.5000    0.0000 N   0  0  0  0  0  0  0  0  0  0  0  0
   -1.1500    0.7625    0.0000 N   0  0  0  0  0  0  0  0  0  0  0  0
   -1.7958    0.4000    0.0000 C   0  0  0  0  0  0  0  0  0  0  0  0
   -0.5125    0.4000    0.0000 C   0  0  0  0  0  0  0  0  0  0  0  0
   -2.4333    1.5000    0.0000 O   0  0  0  0  0  0  0  0  0  0  0  0
    0.7875    0.4000    0.0000 O   0  0  0  0  0  0  0  0  0  0  0  0
   -3.0500   -0.3667    0.0000 C   0  0  3  0  0  0  0  0  0  0  0  0
   -0.5000    1.8708    0.0000 C   0  0  3  0  0  0  0  0  0  0  0  0
   -3.7208    0.7500    0.0000 C   0  0  0  0  0  0  0  0  0  0  0  0
    0.8000    1.8708    0.0000 C   0  0  0  0  0  0  0  0  0  0  0  0
   -0.5125   -0.3375    0.0000 C   0  0  0  0  0  0  0  0  0  0  0  0
   -1.7958   -0.3375    0.0000 C   0  0  0  0  0  0  0  0  0  0  0  0
   -1.1500   -0.7167    0.0000 C   0  0  0  0  0  0  0  0  0  0  0  0
   -2.3958   -0.7375    0.0000 C   0  0  0  0  0  0  0  0  0  0  0  0
   -1.1500    1.5000    0.0000 C   0  0  0  0  0  0  0  0  0  0  0  0
   -3.6958   -0.7500    0.0000 C   0  0  0  0  0  0  0  0  0  0  0  0
   -0.5000    2.6125    0.0000 C   0  0  0  0  0  0  0  0  0  0  0  0
   -4.3625    0.3708    0.0000 C   0  0  0  0  0  0  0  0  0  0  0  0
    0.8000    2.6125    0.0000 C   0  0  0  0  0  0  0  0  0  0  0  0
   -2.3833   -1.5000    0.0000 C   0  0  0  0  0  0  0  0  0  0  0  0
   -1.8000    1.8708    0.0000 C   0  0  0  0  0  0  0  0  0  0  0  0
   -4.3500   -0.3792    0.0000 C   0  0  0  0  0  0  0  0  0  0  0  0
    0.1500    2.9833    0.0000 C   0  0  0  0  0  0  0  0  0  0  0  0
  2  6  1  0  0  0  0
  3  2  1  0  0  0  0
  4  1  1  0  0  0  0
  5  7  1  0  0  0  0
  6  5  2  0  0  0  0
  7  1  1  0  0  0  0
  8  2  2  0  0  0  0
  9  1  2  0  0  0  0
 10  3  1  0  0  0  0
 11  4  1  0  0  0  0
 12  3  1  0  0  0  0
 13  4  1  0  0  0  0
 14  7  2  0  0  0  0
 15 16  2  0  0  0  0
 15  6  1  0  0  0  0
 16 14  1  0  0  0  0
 17 10  1  0  0  0  0
 18 11  1  0  0  0  0
 19 10  1  0  0  0  0
 20 11  1  0  0  0  0
 21 12  1  0  0  0  0
 22 13  1  0  0  0  0
 23 17  1  0  0  0  0
 24 18  1  0  0  0  0
 25 21  1  0  0  0  0
 25 19  1  0  0  0  0
 26 22  1  0  0  0  0
 26 20  1  0  0  0  0
M  END
>  <ID>
7250318

>  <Supplier>
ChemBridge

>  <clogP>
2.770000000000000e+000

>  <RB>
2

>  <tPSA>
5.351000000000000e+001

>  <Hacc>
3

>  <Hdon>
0

>  <LogSw>
-4.172000000000000e+000

>  <Group>
2

$$$$
7785106
 OpenBabel03312015312D

 22 22  0  0  0  0  0  0  0  0999 V2000
    5.9417   -7.2875    0.0000 S   0  0  0  0  0  0  0  0  0  0  0  0
    5.9667   -6.4625    0.0000 N   0  0  0  0  0  0  0  0  0  0  0  0
    5.2625   -6.0375    0.0000 C   0  0  0  0  0  0  0  0  0  0  0  0
    5.2750   -5.2125    0.0000 C   0  0  0  0  0  0  0  0  0  0  0  0
    6.6792   -6.0500    0.0000 C   0  0  0  0  0  0  0  0  0  0  0  0
    7.4000   -6.4625    0.0000 C   0  0  0  0  0  0  0  0  0  0  0  0
    6.3167   -8.0042    0.0000 O   0  0  0  0  0  0  0  0  0  0  0  0
    6.7667   -7.3167    0.0000 O   0  0  0  0  0  0  0  0  0  0  0  0
    4.5667   -4.7917    0.0000 C   0  0  0  0  0  0  0  0  0  0  0  0
    7.4000   -7.2875    0.0000 O   0  0  0  0  0  0  0  0  0  0  0  0
    5.9875   -4.7917    0.0000 Cl  0  0  0  0  0  0  0  0  0  0  0  0
    8.1125   -6.0500    0.0000 N   0  0  0  0  0  0  0  0  0  0  0  0
    5.2167   -7.6792    0.0000 C   0  0  0  0  0  0  0  0  0  0  0  0
    4.5417   -6.4417    0.0000 C   0  0  0  0  0  0  0  0  0  0  0  0
    4.5667   -3.9625    0.0000 Cl  0  0  0  0  0  0  0  0  0  0  0  0
    8.8250   -6.4542    0.0000 C   0  0  0  0  0  0  0  0  0  0  0  0
    3.8375   -6.0167    0.0000 C   0  0  0  0  0  0  0  0  0  0  0  0
    3.8417   -5.1917    0.0000 C   0  0  0  0  0  0  0  0  0  0  0  0
    9.5292   -6.0500    0.0000 C   0  0  0  0  0  0  0  0  0  0  0  0
   10.2417   -6.4625    0.0000 C   0  0  0  0  0  0  0  0  0  0  0  0
   10.9542   -6.0542    0.0000 C   0  0  0  0  0  0  0  0  0  0  0  0
   10.2417   -7.2792    0.0000 C   0  0  0  0  0  0  0  0  0  0  0  0
  2  1  1  0  0  0  0
  3  2  1  0  0  0  0
  4  3  2  0  0  0  0
  5  2  1  0  0  0  0
  6  5  1  0  0  0  0
  7  1  2  0  0  0  0
  8  1  2  0  0  0  0
  9  4  1  0  0  0  0
  9 18  2  0  0  0  0
 10  6  2  0  0  0  0
 11  4  1  0  0  0  0
 12  6  1  0  0  0  0
 13  1  1  0  0  0  0
 14  3  1  0  0  0  0
 15  9  1  0  0  0  0
 16 12  1  0  0  0  0
 17 14  2  0  0  0  0
 18 17  1  0  0  0  0
 19 16  1  0  0  0  0
 20 19  1  0  0  0  0
 21 20  1  0  0  0  0
 22 20  1  0  0  0  0
M  END
>  <ID>
7785106

>  <Supplier>
ChemBridge

>  <clogP>
3.050000000000000e+000

>  <RB>
5

>  <tPSA>
6.647999999999998e+001

>  <Hacc>
3

>  <Hdon>
1

>  <LogSw>
-4.483000000000001e+000

>  <Group>
2

>  <Core>
084

$$$$
9146038
 OpenBabel03312015312D

 27 31  0  0  0  0  0  0  0  0999 V2000
    6.6792    1.4583    0.0000 N   0  0  0  0  0  0  0  0  0  0  0  0
    6.6792    0.7083    0.0000 C   0  0  0  0  0  0  0  0  0  0  0  0
    6.0292    1.8333    0.0000 C   0  0  0  0  0  0  0  0  0  0  0  0
    5.3792    1.4583    0.0000 C   0  0  0  0  0  0  0  0  0  0  0  0
    7.3917    1.6875    0.0000 C   0  0  0  0  0  0  0  0  0  0  0  0
    7.3917    0.4750    0.0000 S   0  0  0  0  0  0  0  0  0  0  0  0
    6.0292    0.3333    0.0000 N   0  0  0  0  0  0  0  0  0  0  0  0
    7.8292    1.0833    0.0000 C   0  0  0  0  0  0  0  0  0  0  0  0
    5.3792    0.7083    0.0000 C   0  0  0  0  0  0  0  0  0  0  0  0
    4.7292    1.8333    0.0000 C   0  0  0  0  0  0  0  0  0  0  0  0
    1.4792    1.4583    0.0000 C   0  0  0  0  0  0  0  0  0  0  0  0
    4.0792    1.4583    0.0000 N   0  0  0  0  0  0  0  0  0  0  0  0
    6.0292    2.5833    0.0000 O   0  0  0  0  0  0  0  0  0  0  0  0
    1.4792    0.7083    0.0000 C   0  0  0  0  0  0  0  0  0  0  0  0
    0.7667    1.6875    0.0000 O   0  0  0  0  0  0  0  0  0  0  0  0
    0.7667    0.4750    0.0000 O   0  0  0  0  0  0  0  0  0  0  0  0
    0.3292    1.0833    0.0000 C   0  0  0  0  0  0  0  0  0  0  0  0
    4.7292    2.5833    0.0000 O   0  0  0  0  0  0  0  0  0  0  0  0
    2.1292    1.8333    0.0000 C   0  0  0  0  0  0  0  0  0  0  0  0
    2.1292    0.3333    0.0000 C   0  0  0  0  0  0  0  0  0  0  0  0
    2.7792    1.4583    0.0000 C   0  0  0  0  0  0  0  0  0  0  0  0
    3.4292    1.8333    0.0000 C   0  0  0  0  0  0  0  0  0  0  0  0
    7.7000    2.3708    0.0000 C   0  0  0  0  0  0  0  0  0  0  0  0
    2.7792    0.7083    0.0000 C   0  0  0  0  0  0  0  0  0  0  0  0
    8.5792    1.1583    0.0000 C   0  0  0  0  0  0  0  0  0  0  0  0
    8.4417    2.4583    0.0000 C   0  0  0  0  0  0  0  0  0  0  0  0
    8.8875    1.8458    0.0000 C   0  0  0  0  0  0  0  0  0  0  0  0
  2  1  1  0  0  0  0
  3  1  1  0  0  0  0
  4  3  1  0  0  0  0
  5  1  1  0  0  0  0
  6  2  1  0  0  0  0
  6  8  1  0  0  0  0
  7  2  2  0  0  0  0
  8  5  2  0  0  0  0
  9  4  2  0  0  0  0
  9  7  1  0  0  0  0
 10  4  1  0  0  0  0
 11 19  2  0  0  0  0
 12 10  1  0  0  0  0
 13  3  2  0  0  0  0
 14 20  2  0  0  0  0
 14 11  1  0  0  0  0
 15 11  1  0  0  0  0
 16 14  1  0  0  0  0
 17 15  1  0  0  0  0
 17 16  1  0  0  0  0
 18 10  2  0  0  0  0
 19 21  1  0  0  0  0
 20 24  1  0  0  0  0
 21 22  1  0  0  0  0
 22 12  1  0  0  0  0
 23  5  1  0  0  0  0
 24 21  2  0  0  0  0
 25  8  1  0  0  0  0
 25 27  1  0  0  0  0
 26 23  1  0  0  0  0
 27 26  1  0  0  0  0
M  END
>  <ID>
9146038

>  <Supplier>
ChemBridge

>  <clogP>
1.943000000000000e+000

>  <RB>
3

>  <tPSA>
8.193000000000001e+001

>  <Hacc>
5

>  <Hdon>
1

>  <LogSw>
-3.655000000000000e+000

>  <Group>
2

>  <Core>
127

$$$$
6955159
 OpenBabel03312015312D

 29 31  0  0  0  0  0  0  0  0999 V2000
    1.7792   -1.3125    0.0000 S   0  0  0  0  0  0  0  0  0  0  0  0
    2.4917   -0.8917    0.0000 N   0  0  0  0  0  0  0  0  0  0  0  0
    8.2000   -0.0417    0.0000 C   0  0  0  0  0  0  0  0  0  0  0  0
    4.6292    0.3583    0.0000 C   0  0  0  0  0  0  0  0  0  0  0  0
    1.0667   -1.7292    0.0000 C   0  0  0  0  0  0  0  0  0  0  0  0
    5.3417   -0.0542    0.0000 N   0  0  0  0  0  0  0  0  0  0  0  0
    7.4792    0.3708    0.0000 C   0  0  0  0  0  0  0  0  0  0  0  0
    2.1875   -2.0250    0.0000 O   0  0  0  0  0  0  0  0  0  0  0  0
    1.3625   -0.5917    0.0000 O   0  0  0  0  0  0  0  0  0  0  0  0
    3.9125   -0.0625    0.0000 C   0  0  0  0  0  0  0  0  0  0  0  0
    3.2042   -1.3042    0.0000 C   0  0  0  0  0  0  0  0  0  0  0  0
    2.4792   -0.0667    0.0000 C   0  0  0  0  0  0  0  0  0  0  0  0
    6.0542    0.3625    0.0000 C   0  0  0  0  0  0  0  0  0  0  0  0
    6.7667   -0.0500    0.0000 C   0  0  0  0  0  0  0  0  0  0  0  0
    4.6250    1.1833    0.0000 O   0  0  0  0  0  0  0  0  0  0  0  0
    8.9917    0.1708    0.0000 F   0  0  0  0  0  0  0  0  0  0  0  0
    7.9792   -0.8417    0.0000 F   0  0  0  0  0  0  0  0  0  0  0  0
    8.9917   -0.2542    0.0000 F   0  0  0  0  0  0  0  0  0  0  0  0
    3.1917    0.3458    0.0000 C   0  0  0  0  0  0  0  0  0  0  0  0
    3.9167   -0.8875    0.0000 C   0  0  0  0  0  0  0  0  0  0  0  0
    0.3500   -1.3167    0.0000 C   0  0  0  0  0  0  0  0  0  0  0  0
    1.0667   -2.5542    0.0000 C   0  0  0  0  0  0  0  0  0  0  0  0
   -0.3625   -2.5542    0.0000 C   0  0  0  0  0  0  0  0  0  0  0  0
   -0.3625   -1.7292    0.0000 C   0  0  0  0  0  0  0  0  0  0  0  0
    0.3500   -2.9667    0.0000 C   0  0  0  0  0  0  0  0  0  0  0  0
   -1.0833   -2.9667    0.0000 F   0  0  0  0  0  0  0  0  0  0  0  0
    7.4792    1.1958    0.0000 C   0  0  0  0  0  0  0  0  0  0  0  0
    6.7542    1.6083    0.0000 C   0  0  0  0  0  0  0  0  0  0  0  0
    6.0500    1.1833    0.0000 C   0  0  0  0  0  0  0  0  0  0  0  0
  2  1  1  0  0  0  0
  3  7  1  0  0  0  0
  4 10  1  0  0  0  0
  5  1  1  0  0  0  0
  6  4  1  0  0  0  0
  7 14  1  0  0  0  0
  7 27  2  0  0  0  0
  8  1  2  0  0  0  0
  9  1  2  0  0  0  0
 10 19  1  0  0  0  0
 10 20  1  0  0  0  0
 11  2  1  0  0  0  0
 12  2  1  0  0  0  0
 13  6  1  0  0  0  0
 14 13  2  0  0  0  0
 15  4  2  0  0  0  0
 16  3  1  0  0  0  0
 17  3  1  0  0  0  0
 18  3  1  0  0  0  0
 19 12  1  0  0  0  0
 20 11  1  0  0  0  0
 21  5  2  0  0  0  0
 22  5  1  0  0  0  0
 23 25  1  0  0  0  0
 23 24  2  0  0  0  0
 24 21  1  0  0  0  0
 25 22  2  0  0  0  0
 26 23  1  0  0  0  0
 27 28  1  0  0  0  0
 28 29  2  0  0  0  0
 29 13  1  0  0  0  0
M  END
>  <ID>
6955159

>  <Supplier>
ChemBridge

>  <clogP>
3.840000000000000e+000

>  <RB>
3

>  <tPSA>
6.647999999999998e+001

>  <Hacc>
4

>  <Hdon>
1

>  <LogSw>
-5.616999999999998e+000

>  <Group>
3

>  <Core>
050

$$$$
7958459
 OpenBabel03312015312D

 24 26  0  0  0  0  0  0  0  0999 V2000
    2.8542    2.5208    0.0000 N   0  0  0  0  0  0  0  0  0  0  0  0
    3.2292    1.8708    0.0000 C   0  0  0  0  0  0  0  0  0  0  0  0
    2.1250    2.3583    0.0000 N   0  0  0  0  0  0  0  0  0  0  0  0
    2.0417    1.6125    0.0000 C   0  0  0  0  0  0  0  0  0  0  0  0
    3.2292    3.1708    0.0000 C   0  0  3  0  0  0  0  0  0  0  0  0
    2.7292    1.3083    0.0000 C   0  0  0  0  0  0  0  0  0  0  0  0
    3.9792    1.8708    0.0000 N   0  0  0  0  0  0  0  0  0  0  0  0
    2.8542    3.8125    0.0000 C   0  0  0  0  0  0  0  0  0  0  0  0
    3.9792    3.1708    0.0000 C   0  0  0  0  0  0  0  0  0  0  0  0
    4.3542    2.5208    0.0000 C   0  0  3  0  0  0  0  0  0  0  0  0
    1.3917    1.2375    0.0000 C   0  0  0  0  0  0  0  0  0  0  0  0
    5.1042    2.5208    0.0000 C   0  0  0  0  0  0  0  0  0  0  0  0
    1.3917    0.4875    0.0000 O   0  0  0  0  0  0  0  0  0  0  0  0
    5.4792    1.8708    0.0000 C   0  0  0  0  0  0  0  0  0  0  0  0
    3.3875    4.3417    0.0000 F   0  0  0  0  0  0  0  0  0  0  0  0
    2.3750    4.3792    0.0000 F   0  0  0  0  0  0  0  0  0  0  0  0
    2.2417    3.3833    0.0000 F   0  0  0  0  0  0  0  0  0  0  0  0
    0.7417    1.6125    0.0000 O   0  0  0  0  0  0  0  0  0  0  0  0
    6.2292    1.8708    0.0000 C   0  0  0  0  0  0  0  0  0  0  0  0
    6.6042    1.2208    0.0000 O   0  0  0  0  0  0  0  0  0  0  0  0
    5.4792    3.1708    0.0000 C   0  0  0  0  0  0  0  0  0  0  0  0
    6.2292    3.1708    0.0000 C   0  0  0  0  0  0  0  0  0  0  0  0
    6.6042    2.5208    0.0000 C   0  0  0  0  0  0  0  0  0  0  0  0
    7.3542    1.2208    0.0000 C   0  0  0  0  0  0  0  0  0  0  0  0
  2  1  1  0  0  0  0
  3  1  1  0  0  0  0
  4  3  2  0  0  0  0
  4  6  1  0  0  0  0
  5  1  1  0  0  0  0
  6  2  2  0  0  0  0
  7  2  1  0  0  0  0
  8  5  1  0  0  0  0
  9  5  1  0  0  0  0
 10  9  1  0  0  0  0
 10  7  1  0  0  0  0
 11  4  1  0  0  0  0
 12 10  1  0  0  0  0
 13 11  2  0  0  0  0
 14 12  1  0  0  0  0
 15  8  1  0  0  0  0
 16  8  1  0  0  0  0
 17  8  1  0  0  0  0
 18 11  1  0  0  0  0
 19 14  2  0  0  0  0
 19 23  1  0  0  0  0
 20 19  1  0  0  0  0
 21 12  2  0  0  0  0
 22 21  1  0  0  0  0
 23 22  2  0  0  0  0
 24 20  1  0  0  0  0
M  END
>  <ID>
7958459

>  <Supplier>
ChemBridge

>  <clogP>
2.787000000000000e+000

>  <RB>
2

>  <tPSA>
7.638000000000000e+001

>  <Hacc>
4

>  <Hdon>
2

>  <LogSw>
-4.069000000000000e+000

>  <Group>
2

>  <Core>
138

$$$$
7958458
 OpenBabel03312015312D

 36 38  0  0  0  0  0  0  0  0999 V2000
    5.5625    4.0292    0.0000 C   0  0  0  0  0  0  0  0  0  0  0  0
    4.0625    4.0292    0.0000 C   0  0  0  0  0  0  0  0  0  0  0  0
    4.4375    4.6875    0.0000 N   0  0  0  0  0  0  0  0  0  0  0  0
    5.1875    3.3958    0.0000 C   0  0  0  0  0  0  0  0  0  0  0  0
    5.1875    4.6875    0.0000 C   0  0  0  0  0  0  0  0  0  0  0  0
    4.4375    3.3958    0.0000 N   0  0  0  0  0  0  0  0  0  0  0  0
    2.1875    3.3958    0.0000 C   0  0  0  0  0  0  0  0  0  0  0  0
    1.8125    2.7458    0.0000 N   0  0  0  0  0  0  0  0  0  0  0  0
    1.0625    2.7458    0.0000 C   0  0  3  0  0  0  0  0  0  0  0  0
    6.3125    4.0292    0.0000 C   0  0  0  0  0  0  0  0  0  0  0  0
    3.3125    4.0292    0.0000 S   0  0  0  0  0  0  0  0  0  0  0  0
    0.6875    2.0958    0.0000 C   0  0  0  0  0  0  0  0  0  0  0  0
    7.0625    4.0292    0.0000 N   0  0  0  0  0  0  0  0  0  0  0  0
    2.9375    3.3958    0.0000 C   0  0  3  0  0  0  0  0  0  0  0  0
    5.5625    5.3375    0.0000 O   0  0  0  0  0  0  0  0  0  0  0  0
    5.5625    2.7458    0.0000 C   0  0  0  0  0  0  0  0  0  0  0  0
    1.8125    4.0292    0.0000 O   0  0  0  0  0  0  0  0  0  0  0  0
    1.0625    1.4458    0.0000 O   0  0  0  0  0  0  0  0  0  0  0  0
    1.0625    4.0292    0.0000 S   0  0  0  0  0  0  0  0  0  0  0  0
   -0.0625    2.0958    0.0000 O   0  0  0  0  0  0  0  0  0  0  0  0
    0.6875    3.3958    0.0000 C   0  0  0  0  0  0  0  0  0  0  0  0
    1.0625    5.3375    0.0000 C   0  0  0  0  0  0  0  0  0  0  0  0
    0.6875    4.6875    0.0000 C   0  0  0  0  0  0  0  0  0  0  0  0
    3.3125    2.7458    0.0000 C   0  0  0  0  0  0  0  0  0  0  0  0
    5.1875    2.0958    0.0000 C   0  0  0  0  0  0  0  0  0  0  0  0
    6.3125    2.7458    0.0000 C   0  0  0  0  0  0  0  0  0  0  0  0
   -0.4375    1.4458    0.0000 C   0  0  0  0  0  0  0  0  0  0  0  0
    1.8125    5.3375    0.0000 C   0  0  0  0  0  0  0  0  0  0  0  0
    0.6875    5.9792    0.0000 C   0  0  0  0  0  0  0  0  0  0  0  0
    4.0625    2.7458    0.0000 C   0  0  0  0  0  0  0  0  0  0  0  0
    6.6875    2.0958    0.0000 C   0  0  0  0  0  0  0  0  0  0  0  0
    5.5625    1.4458    0.0000 C   0  0  0  0  0  0  0  0  0  0  0  0
    1.0625    6.6375    0.0000 C   0  0  0  0  0  0  0  0  0  0  0  0
    2.1875    5.9792    0.0000 C   0  0  0  0  0  0  0  0  0  0  0  0
    1.8125    6.6375    0.0000 C   0  0  0  0  0  0  0  0  0  0  0  0
    6.3125    1.4458    0.0000 C   0  0  0  0  0  0  0  0  0  0  0  0
  2  3  1  0  0  0  0
  3  5  1  0  0  0  0
  4  1  2  0  0  0  0
  5  1  1  0  0  0  0
  6  4  1  0  0  0  0
  6  2  2  0  0  0  0
  7 14  1  0  0  0  0
  8  7  1  0  0  0  0
  9  8  1  0  0  0  0
 10  1  1  0  0  0  0
 11  2  1  0  0  0  0
 12  9  1  0  0  0  0
 13 10  3  0  0  0  0
 14 11  1  0  0  0  0
 15  5  2  0  0  0  0
 16  4  1  0  0  0  0
 17  7  2  0  0  0  0
 18 12  2  0  0  0  0
 19 21  1  0  0  0  0
 20 12  1  0  0  0  0
 21  9  1  0  0  0  0
 22 23  1  0  0  0  0
 23 19  1  0  0  0  0
 24 14  1  0  0  0  0
 25 16  2  0  0  0  0
 26 16  1  0  0  0  0
 27 20  1  0  0  0  0
 28 22  1  0  0  0  0
 29 22  2  0  0  0  0
 30 24  1  0  0  0  0
 31 26  2  0  0  0  0
 32 25  1  0  0  0  0
 33 29  1  0  0  0  0
 34 28  2  0  0  0  0
 34 35  1  0  0  0  0
 35 33  2  0  0  0  0
 36 31  1  0  0  0  0
 36 32  2  0  0  0  0
M  END
>  <ID>
7958458

>  <Supplier>
ChemBridge

>  <clogP>
3.990000000000000e+000

>  <RB>
10

>  <tPSA>
1.249400000000000e+002

>  <Hacc>
6

>  <Hdon>
2

>  <LogSw>
-6.681000000000000e+000

>  <Group>
1

>  <Core>
017

$$$$
9134896
 OpenBabel03312015312D

 30 33  0  0  0  0  0  0  0  0999 V2000
    4.8875    0.6583    0.0000 S   0  0  0  0  0  0  0  0  0  0  0  0
    5.4167    1.1875    0.0000 C   0  0  0  0  0  0  0  0  0  0  0  0
    6.1542    1.0708    0.0000 C   0  0  0  0  0  0  0  0  0  0  0  0
    4.2375    1.0333    0.0000 N   0  0  0  0  0  0  0  0  0  0  0  0
    6.5000    1.7375    0.0000 C   0  0  0  0  0  0  0  0  0  0  0  0
    8.2500    2.6750    0.0000 C   0  0  0  0  0  0  0  0  0  0  0  0
    7.2417    1.8583    0.0000 C   0  0  0  0  0  0  0  0  0  0  0  0
    8.7792    2.1458    0.0000 N   0  0  0  0  0  0  0  0  0  0  0  0
    5.9667    2.2708    0.0000 S   0  0  0  0  0  0  0  0  0  0  0  0
    8.5917    3.3458    0.0000 C   0  0  0  0  0  0  0  0  0  0  0  0
    7.5042    2.5583    0.0000 N   0  0  0  0  0  0  0  0  0  0  0  0
    5.3000    1.9333    0.0000 C   0  0  0  0  0  0  0  0  0  0  0  0
    2.9417    1.7833    0.0000 N   0  0  0  0  0  0  0  0  0  0  0  0
    9.4500    2.4833    0.0000 O   0  0  0  0  0  0  0  0  0  0  0  0
    9.3292    3.2333    0.0000 C   0  0  0  0  0  0  0  0  0  0  0  0
    4.4542    0.0458    0.0000 O   0  0  0  0  0  0  0  0  0  0  0  0
    5.4625    0.1750    0.0000 O   0  0  0  0  0  0  0  0  0  0  0  0
    3.5917    0.6583    0.0000 C   0  0  0  0  0  0  0  0  0  0  0  0
    4.2375    1.7833    0.0000 C   0  0  0  0  0  0  0  0  0  0  0  0
    2.2917    2.1583    0.0000 C   0  0  0  0  0  0  0  0  0  0  0  0
    2.9417    1.0333    0.0000 C   0  0  0  0  0  0  0  0  0  0  0  0
    3.5917    2.1583    0.0000 C   0  0  0  0  0  0  0  0  0  0  0  0
    7.7125    1.2750    0.0000 O   0  0  0  0  0  0  0  0  0  0  0  0
    2.2917    2.9083    0.0000 C   0  0  0  0  0  0  0  0  0  0  0  0
    1.6417    1.7833    0.0000 C   0  0  0  0  0  0  0  0  0  0  0  0
    0.9917    2.9083    0.0000 C   0  0  0  0  0  0  0  0  0  0  0  0
    0.9917    2.1583    0.0000 C   0  0  0  0  0  0  0  0  0  0  0  0
    1.6417    3.2833    0.0000 C   0  0  0  0  0  0  0  0  0  0  0  0
    0.3417    3.2833    0.0000 F   0  0  0  0  0  0  0  0  0  0  0  0
    9.8625    3.7583    0.0000 C   0  0  0  0  0  0  0  0  0  0  0  0
  2  1  1  0  0  0  0
  3  2  1  0  0  0  0
  4  1  1  0  0  0  0
  5  3  2  0  0  0  0
  6 11  1  0  0  0  0
  7  5  1  0  0  0  0
  8  6  2  0  0  0  0
  9 12  1  0  0  0  0
  9  5  1  0  0  0  0
 10  6  1  0  0  0  0
 11  7  1  0  0  0  0
 12  2  2  0  0  0  0
 13 22  1  0  0  0  0
 14  8  1  0  0  0  0
 14 15  1  0  0  0  0
 15 10  2  0  0  0  0
 16  1  2  0  0  0  0
 17  1  2  0  0  0  0
 18  4  1  0  0  0  0
 19  4  1  0  0  0  0
 20 13  1  0  0  0  0
 21 18  1  0  0  0  0
 21 13  1  0  0  0  0
 22 19  1  0  0  0  0
 23  7  2  0  0  0  0
 24 20  1  0  0  0  0
 25 20  2  0  0  0  0
 26 27  2  0  0  0  0
 26 28  1  0  0  0  0
 27 25  1  0  0  0  0
 28 24  2  0  0  0  0
 29 26  1  0  0  0  0
 30 15  1  0  0  0  0
M  END
>  <ID>
9134896

>  <Supplier>
ChemBridge

>  <clogP>
2.516000000000000e+000

>  <RB>
4

>  <tPSA>
9.575000000000004e+001

>  <Hacc>
6

>  <Hdon>
1

>  <LogSw>
-4.632000000000000e+000

>  <Group>
2

$$$$
7958451
 OpenBabel03312015312D

 22 25  0  0  0  0  0  0  0  0999 V2000
    3.3875    1.6333    0.0000 C   0  0  0  0  0  0  0  0  0  0  0  0
    3.3875    0.8833    0.0000 C   0  0  0  0  0  0  0  0  0  0  0  0
    4.0375    2.0083    0.0000 C   0  0  0  0  0  0  0  0  0  0  0  0
    4.0375    0.5083    0.0000 O   0  0  0  0  0  0  0  0  0  0  0  0
    4.6875    1.6333    0.0000 C   0  0  0  0  0  0  0  0  0  0  0  0
    4.6875    0.8833    0.0000 C   0  0  0  0  0  0  0  0  0  0  0  0
    5.9875    1.6333    0.0000 C   0  0  0  0  0  0  0  0  0  0  0  0
    5.9875    0.8833    0.0000 C   0  0  0  0  0  0  0  0  0  0  0  0
    5.3375    2.0083    0.0000 C   0  0  0  0  0  0  0  0  0  0  0  0
    6.7000    0.6500    0.0000 O   0  0  0  0  0  0  0  0  0  0  0  0
    5.3375    0.5083    0.0000 C   0  0  0  0  0  0  0  0  0  0  0  0
    6.7000    1.8625    0.0000 C   0  0  0  0  0  0  0  0  0  0  0  0
    7.1417    1.2583    0.0000 C   0  0  0  0  0  0  0  0  0  0  0  0
    2.7417    2.0083    0.0000 C   0  0  0  0  0  0  0  0  0  0  0  0
    2.7417    0.5083    0.0000 O   0  0  0  0  0  0  0  0  0  0  0  0
    2.7417    2.7583    0.0000 C   0  0  0  0  0  0  0  0  0  0  0  0
    2.0917    1.6333    0.0000 C   0  0  0  0  0  0  0  0  0  0  0  0
    1.4417    2.7583    0.0000 C   0  0  0  0  0  0  0  0  0  0  0  0
    1.4417    2.0083    0.0000 C   0  0  0  0  0  0  0  0  0  0  0  0
    2.0917    3.1333    0.0000 C   0  0  0  0  0  0  0  0  0  0  0  0
    0.7917    3.1333    0.0000 Cl  0  0  0  0  0  0  0  0  0  0  0  0
    6.9292    2.5833    0.0000 C   0  0  0  0  0  0  0  0  0  0  0  0
  2  1  1  0  0  0  0
  3  1  2  0  0  0  0
  4  2  1  0  0  0  0
  4  6  1  0  0  0  0
  5  3  1  0  0  0  0
  6  5  1  0  0  0  0
  7  9  1  0  0  0  0
  8  7  2  0  0  0  0
  8 11  1  0  0  0  0
  9  5  2  0  0  0  0
 10  8  1  0  0  0  0
 10 13  1  0  0  0  0
 11  6  2  0  0  0  0
 12  7  1  0  0  0  0
 13 12  2  0  0  0  0
 14  1  1  0  0  0  0
 15  2  2  0  0  0  0
 16 14  1  0  0  0  0
 17 14  2  0  0  0  0
 18 19  2  0  0  0  0
 19 17  1  0  0  0  0
 20 16  2  0  0  0  0
 20 18  1  0  0  0  0
 21 18  1  0  0  0  0
 22 12  1  0  0  0  0
M  END
>  <ID>
7958451

>  <Supplier>
ChemBridge

>  <clogP>
5.282000000000000e+000

>  <RB>
1

>  <tPSA>
4.335000000000000e+001

>  <Hacc>
3

>  <Hdon>
0

>  <LogSw>
-5.977000000000000e+000

>  <Group>
1

>  <Core>
079

$$$$
7958450
 OpenBabel03312015312D

 17 18  0  0  0  0  0  0  0  0999 V2000
    3.7667    2.4625    0.0000 N   0  0  0  0  0  0  0  0  0  0  0  0
    3.3292    1.8583    0.0000 N   0  0  0  0  0  0  0  0  0  0  0  0
    3.7667    1.2500    0.0000 C   0  0  0  0  0  0  0  0  0  0  0  0
    4.4792    1.4833    0.0000 C   0  0  0  0  0  0  0  0  0  0  0  0
    4.4792    2.2333    0.0000 C   0  0  0  0  0  0  0  0  0  0  0  0
    2.5792    1.8583    0.0000 C   0  0  0  0  0  0  0  0  0  0  0  0
    5.0917    2.6750    0.0000 C   0  0  0  0  0  0  0  0  0  0  0  0
    3.5417    0.5375    0.0000 N   0  0  0  0  0  0  0  0  0  0  0  0
    2.2042    2.5083    0.0000 C   0  0  0  0  0  0  0  0  0  0  0  0
    2.2042    1.2083    0.0000 C   0  0  0  0  0  0  0  0  0  0  0  0
    1.4542    2.5083    0.0000 C   0  0  0  0  0  0  0  0  0  0  0  0
    1.4542    1.2083    0.0000 C   0  0  0  0  0  0  0  0  0  0  0  0
    1.0792    1.8583    0.0000 C   0  0  0  0  0  0  0  0  0  0  0  0
    5.6750    2.2083    0.0000 C   0  0  0  0  0  0  0  0  0  0  0  0
    5.6125    3.2125    0.0000 C   0  0  0  0  0  0  0  0  0  0  0  0
    4.6000    3.2375    0.0000 C   0  0  0  0  0  0  0  0  0  0  0  0
    0.3292    1.8583    0.0000 C   0  0  0  0  0  0  0  0  0  0  0  0
  2  1  1  0  0  0  0
  3  2  1  0  0  0  0
  4  5  1  0  0  0  0
  4  3  2  0  0  0  0
  5  1  2  0  0  0  0
  6  2  1  0  0  0  0
  7  5  1  0  0  0  0
  8  3  1  0  0  0  0
  9  6  2  0  0  0  0
 10  6  1  0  0  0  0
 11  9  1  0  0  0  0
 12 10  2  0  0  0  0
 13 12  1  0  0  0  0
 13 11  2  0  0  0  0
 14  7  1  0  0  0  0
 15  7  1  0  0  0  0
 16  7  1  0  0  0  0
 17 13  1  0  0  0  0
M  END
>  <ID>
7958450

>  <Supplier>
ChemBridge

>  <clogP>
3.507000000000000e+000

>  <RB>
2

>  <tPSA>
4.384000000000000e+001

>  <Hacc>
1

>  <Hdon>
1

>  <LogSw>
-3.868000000000000e+000

>  <Group>
2

$$$$
7958453
 OpenBabel03312015312D

 18 19  0  0  0  0  0  0  0  0999 V2000
    5.3500    1.8458    0.0000 C   0  0  0  0  0  0  0  0  0  0  0  0
    4.9042    2.4583    0.0000 N   0  0  0  0  0  0  0  0  0  0  0  0
    4.9042    1.2458    0.0000 N   0  0  0  0  0  0  0  0  0  0  0  0
    4.1917    2.2208    0.0000 C   0  0  0  0  0  0  0  0  0  0  0  0
    4.1917    1.4708    0.0000 O   0  0  0  0  0  0  0  0  0  0  0  0
    6.1000    1.8458    0.0000 C   0  0  0  0  0  0  0  0  0  0  0  0
    2.2917    2.8000    0.0000 C   0  0  0  0  0  0  0  0  0  0  0  0
    6.4750    1.1958    0.0000 C   0  0  0  0  0  0  0  0  0  0  0  0
    2.3750    3.5458    0.0000 O   0  0  0  0  0  0  0  0  0  0  0  0
    1.6042    2.4958    0.0000 N   0  0  0  0  0  0  0  0  0  0  0  0
    3.5875    2.6625    0.0000 C   0  0  0  0  0  0  0  0  0  0  0  0
    2.9000    2.3583    0.0000 C   0  0  0  0  0  0  0  0  0  0  0  0
    6.4750    2.4958    0.0000 C   0  0  0  0  0  0  0  0  0  0  0  0
    6.1000    0.5458    0.0000 C   0  0  0  0  0  0  0  0  0  0  0  0
    7.2250    1.1958    0.0000 C   0  0  0  0  0  0  0  0  0  0  0  0
    1.0042    2.9333    0.0000 C   0  0  0  0  0  0  0  0  0  0  0  0
    7.2250    2.4958    0.0000 C   0  0  0  0  0  0  0  0  0  0  0  0
    7.6000    1.8458    0.0000 C   0  0  0  0  0  0  0  0  0  0  0  0
  2  1  1  0  0  0  0
  3  1  2  0  0  0  0
  4  2  2  0  0  0  0
  5  3  1  0  0  0  0
  5  4  1  0  0  0  0
  6  1  1  0  0  0  0
  7 12  1  0  0  0  0
  8  6  2  0  0  0  0
  9  7  2  0  0  0  0
 10  7  1  0  0  0  0
 11  4  1  0  0  0  0
 12 11  1  0  0  0  0
 13  6  1  0  0  0  0
 14  8  1  0  0  0  0
 15  8  1  0  0  0  0
 15 18  2  0  0  0  0
 16 10  1  0  0  0  0
 17 13  2  0  0  0  0
 18 17  1  0  0  0  0
M  END
>  <ID>
7958453

>  <Supplier>
ChemBridge

>  <clogP>
4.380000000000000e-001

>  <RB>
4

>  <tPSA>
6.802000000000000e+001

>  <Hacc>
4

>  <Hdon>
1

>  <LogSw>
-1.364000000000000e+000

>  <Group>
3

>  <Core>
206

$$$$
7958452
 OpenBabel03312015312D

 31 35  0  0  0  0  0  0  0  0999 V2000
    7.9000    1.5625    0.0000 N   0  0  0  0  0  0  0  0  0  0  0  0
    7.9792    0.8208    0.0000 C   0  0  0  0  0  0  0  0  0  0  0  0
    8.5875    1.8708    0.0000 C   0  0  0  0  0  0  0  0  0  0  0  0
    9.8375    0.0083    0.0000 C   0  0  3  0  0  0  0  0  0  0  0  0
   10.2042    0.6583    0.0000 C   0  0  3  0  0  0  0  0  0  0  0  0
    8.7125    0.6583    0.0000 C   0  0  3  0  0  0  0  0  0  0  0  0
    9.0875    1.3083    0.0000 C   0  0  3  0  0  0  0  0  0  0  0  0
    9.8375    1.3083    0.0000 C   0  0  3  0  0  0  0  0  0  0  0  0
    9.4625    0.6583    0.0000 C   0  0  3  0  0  0  0  0  0  0  0  0
   10.5792    0.0083    0.0000 C   0  0  0  0  0  0  0  0  0  0  0  0
   10.2042    1.9583    0.0000 C   0  0  0  0  0  0  0  0  0  0  0  0
   10.4042    1.2333    0.0000 C   0  0  0  0  0  0  0  0  0  0  0  0
    7.4167    0.3125    0.0000 O   0  0  0  0  0  0  0  0  0  0  0  0
    8.7417    2.6000    0.0000 O   0  0  0  0  0  0  0  0  0  0  0  0
    1.8167    0.4833    0.0000 C   0  0  0  0  0  0  0  0  0  0  0  0
    4.2292    1.2458    0.0000 C   0  0  0  0  0  0  0  0  0  0  0  0
    3.5250    1.4958    0.0000 N   0  0  0  0  0  0  0  0  0  0  0  0
    1.0792    0.6083    0.0000 C   0  0  0  0  0  0  0  0  0  0  0  0
    2.3042    1.0583    0.0000 C   0  0  0  0  0  0  0  0  0  0  0  0
    3.0417    0.9208    0.0000 C   0  0  0  0  0  0  0  0  0  0  0  0
    4.3542    0.5000    0.0000 O   0  0  0  0  0  0  0  0  0  0  0  0
    0.6000    0.0333    0.0000 O   0  0  0  0  0  0  0  0  0  0  0  0
    7.2500    1.9375    0.0000 C   0  0  0  0  0  0  0  0  0  0  0  0
    2.0792   -0.2167    0.0000 C   0  0  0  0  0  0  0  0  0  0  0  0
    2.8167   -0.3542    0.0000 C   0  0  0  0  0  0  0  0  0  0  0  0
    4.8042    1.7208    0.0000 C   0  0  0  0  0  0  0  0  0  0  0  0
    3.3000    0.2208    0.0000 C   0  0  0  0  0  0  0  0  0  0  0  0
    0.8250    1.3125    0.0000 C   0  0  0  0  0  0  0  0  0  0  0  0
    6.6750    1.4583    0.0000 C   0  0  0  0  0  0  0  0  0  0  0  0
    5.4542    1.3458    0.0000 C   0  0  0  0  0  0  0  0  0  0  0  0
    6.0292    1.8333    0.0000 C   0  0  0  0  0  0  0  0  0  0  0  0
  2  1  1  0  0  0  0
  3  1  1  0  0  0  0
  4  9  1  0  0  0  0
  4 10  1  0  0  0  0
  5  8  1  0  0  0  0
  5  4  1  0  0  0  0
  6  2  1  0  0  0  0
  7  3  1  0  0  0  0
  7  6  1  0  0  0  0
  8  7  1  0  0  0  0
  9  6  1  0  0  0  0
 10  5  1  0  0  0  0
 11  8  1  0  0  0  0
 11 12  2  0  0  0  0
 12  9  1  0  0  0  0
 13  2  2  0  0  0  0
 14  3  2  0  0  0  0
 15 19  2  0  0  0  0
 16 26  1  0  0  0  0
 17 16  1  0  0  0  0
 18 15  1  0  0  0  0
 19 20  1  0  0  0  0
 20 17  1  0  0  0  0
 21 16  2  0  0  0  0
 22 18  2  0  0  0  0
 23  1  1  0  0  0  0
 24 25  2  0  0  0  0
 24 15  1  0  0  0  0
 25 27  1  0  0  0  0
 26 30  1  0  0  0  0
 27 20  2  0  0  0  0
 28 18  1  0  0  0  0
 29 23  1  0  0  0  0
 30 31  1  0  0  0  0
 31 29  1  0  0  0  0
M  END
>  <ID>
7958452

>  <Supplier>
ChemBridge

>  <clogP>
2.033000000000000e+000

>  <RB>
8

>  <tPSA>
8.355000000000010e+001

>  <Hacc>
4

>  <Hdon>
1

>  <LogSw>
-4.002000000000000e+000

>  <Group>
1

>  <Core>
311

$$$$
7958456
 OpenBabel03312015312D

 27 29  0  0  0  0  0  0  0  0999 V2000
    6.0250    1.6625    0.0000 N   0  0  0  0  0  0  0  0  0  0  0  0
    6.4667    2.2708    0.0000 C   0  0  0  0  0  0  0  0  0  0  0  0
    6.0250    2.8750    0.0000 N   0  0  0  0  0  0  0  0  0  0  0  0
    5.3125    1.8958    0.0000 C   0  0  0  0  0  0  0  0  0  0  0  0
    5.3125    2.6458    0.0000 O   0  0  0  0  0  0  0  0  0  0  0  0
    2.7250    1.6208    0.0000 N   0  0  0  0  0  0  0  0  0  0  0  0
    7.2167    2.2708    0.0000 C   0  0  0  0  0  0  0  0  0  0  0  0
    3.4125    1.3208    0.0000 C   0  0  0  0  0  0  0  0  0  0  0  0
    2.1167    1.1833    0.0000 C   0  0  0  0  0  0  0  0  0  0  0  0
    7.5917    1.6208    0.0000 C   0  0  0  0  0  0  0  0  0  0  0  0
    1.4292    1.4875    0.0000 C   0  0  0  0  0  0  0  0  0  0  0  0
    3.4917    0.5708    0.0000 O   0  0  0  0  0  0  0  0  0  0  0  0
    4.7042    1.4583    0.0000 C   0  0  0  0  0  0  0  0  0  0  0  0
    4.0167    1.7583    0.0000 C   0  0  0  0  0  0  0  0  0  0  0  0
    8.3417    1.6208    0.0000 C   0  0  0  0  0  0  0  0  0  0  0  0
    1.3542    2.2333    0.0000 O   0  0  0  0  0  0  0  0  0  0  0  0
    8.7167    0.9708    0.0000 O   0  0  0  0  0  0  0  0  0  0  0  0
    7.5917    2.9208    0.0000 C   0  0  0  0  0  0  0  0  0  0  0  0
    8.3417    2.9208    0.0000 C   0  0  0  0  0  0  0  0  0  0  0  0
    2.1917    0.4375    0.0000 C   0  0  0  0  0  0  0  0  0  0  0  0
    0.8292    1.0458    0.0000 C   0  0  0  0  0  0  0  0  0  0  0  0
    8.7167    2.2708    0.0000 C   0  0  0  0  0  0  0  0  0  0  0  0
    0.6667    2.5375    0.0000 C   0  0  0  0  0  0  0  0  0  0  0  0
    9.4667    0.9708    0.0000 C   0  0  0  0  0  0  0  0  0  0  0  0
    0.5917    3.2833    0.0000 C   0  0  0  0  0  0  0  0  0  0  0  0
    1.5917   -0.0042    0.0000 C   0  0  0  0  0  0  0  0  0  0  0  0
    0.9042    0.3000    0.0000 C   0  0  0  0  0  0  0  0  0  0  0  0
  2  1  1  0  0  0  0
  3  2  2  0  0  0  0
  3  5  1  0  0  0  0
  4  1  2  0  0  0  0
  5  4  1  0  0  0  0
  6  8  1  0  0  0  0
  7  2  1  0  0  0  0
  8 14  1  0  0  0  0
  9  6  1  0  0  0  0
 10  7  2  0  0  0  0
 11  9  2  0  0  0  0
 12  8  2  0  0  0  0
 13  4  1  0  0  0  0
 14 13  1  0  0  0  0
 15 10  1  0  0  0  0
 15 22  2  0  0  0  0
 16 11  1  0  0  0  0
 17 15  1  0  0  0  0
 18  7  1  0  0  0  0
 19 18  2  0  0  0  0
 20  9  1  0  0  0  0
 21 11  1  0  0  0  0
 22 19  1  0  0  0  0
 23 16  1  0  0  0  0
 24 17  1  0  0  0  0
 25 23  1  0  0  0  0
 26 20  2  0  0  0  0
 27 26  1  0  0  0  0
 27 21  2  0  0  0  0
M  END
>  <ID>
7958456

>  <Supplier>
ChemBridge

>  <clogP>
2.534000000000000e+000

>  <RB>
5

>  <tPSA>
8.647999999999999e+001

>  <Hacc>
6

>  <Hdon>
1

>  <LogSw>
-4.043000000000000e+000

>  <Group>
2

>  <Core>
206

$$$$
6391365
 OpenBabel03312015312D

 32 34  0  0  0  0  0  0  0  0999 V2000
   -0.4625   -2.4167    0.0000 N   0  0  0  0  0  0  0  0  0  0  0  0
   -0.0500   -3.1375    0.0000 C   0  0  0  0  0  0  0  0  0  0  0  0
   -1.2875   -2.4167    0.0000 C   0  0  0  0  0  0  0  0  0  0  0  0
    4.4792   -3.8750    0.0000 C   0  0  0  0  0  0  0  0  0  0  0  0
   -1.7000   -1.7042    0.0000 C   0  0  0  0  0  0  0  0  0  0  0  0
    4.0750   -3.1542    0.0000 N   0  0  0  0  0  0  0  0  0  0  0  0
    5.3042   -3.8792    0.0000 C   0  0  0  0  0  0  0  0  0  0  0  0
   -2.5333   -1.7042    0.0000 C   0  0  0  0  0  0  0  0  0  0  0  0
    0.7750   -3.1375    0.0000 N   0  0  0  0  0  0  0  0  0  0  0  0
   -2.9458   -0.9792    0.0000 C   0  0  0  0  0  0  0  0  0  0  0  0
   -0.4625   -3.8500    0.0000 S   0  0  0  0  0  0  0  0  0  0  0  0
   -1.7000   -3.1375    0.0000 O   0  0  0  0  0  0  0  0  0  0  0  0
   -2.5333   -0.2667    0.0000 C   0  0  0  0  0  0  0  0  0  0  0  0
    4.0667   -4.5875    0.0000 O   0  0  0  0  0  0  0  0  0  0  0  0
    5.7167   -4.5917    0.0000 C   0  0  0  0  0  0  0  0  0  0  0  0
   -1.2958   -0.9875    0.0000 C   0  0  0  0  0  0  0  0  0  0  0  0
   -1.7083   -0.2667    0.0000 C   0  0  0  0  0  0  0  0  0  0  0  0
    3.2500   -3.1500    0.0000 C   0  0  0  0  0  0  0  0  0  0  0  0
    1.6000   -3.1417    0.0000 C   0  0  0  0  0  0  0  0  0  0  0  0
    6.5417   -4.6000    0.0000 C   0  0  0  0  0  0  0  0  0  0  0  0
   -3.7750   -0.9792    0.0000 O   0  0  0  0  0  0  0  0  0  0  0  0
    2.8292   -3.8625    0.0000 C   0  0  0  0  0  0  0  0  0  0  0  0
    2.8417   -2.4292    0.0000 C   0  0  0  0  0  0  0  0  0  0  0  0
    2.0167   -2.4292    0.0000 C   0  0  0  0  0  0  0  0  0  0  0  0
    2.0042   -3.8542    0.0000 C   0  0  0  0  0  0  0  0  0  0  0  0
   -2.9458    0.4500    0.0000 O   0  0  0  0  0  0  0  0  0  0  0  0
    5.7250   -3.1667    0.0000 C   0  0  0  0  0  0  0  0  0  0  0  0
    6.5500   -3.1667    0.0000 C   0  0  0  0  0  0  0  0  0  0  0  0
    6.9542   -3.8875    0.0000 C   0  0  0  0  0  0  0  0  0  0  0  0
    6.9500   -5.3167    0.0000 C   0  0  0  0  0  0  0  0  0  0  0  0
   -4.1875   -1.6917    0.0000 C   0  0  0  0  0  0  0  0  0  0  0  0
   -2.5333    1.1625    0.0000 C   0  0  0  0  0  0  0  0  0  0  0  0
  2  1  1  0  0  0  0
  3  1  1  0  0  0  0
  4  6  1  0  0  0  0
  5  3  1  0  0  0  0
  6 18  1  0  0  0  0
  7  4  1  0  0  0  0
  8  5  1  0  0  0  0
  9  2  1  0  0  0  0
 10  8  2  0  0  0  0
 11  2  2  0  0  0  0
 12  3  2  0  0  0  0
 13 17  2  0  0  0  0
 13 10  1  0  0  0  0
 14  4  2  0  0  0  0
 15  7  1  0  0  0  0
 16  5  2  0  0  0  0
 17 16  1  0  0  0  0
 18 22  2  0  0  0  0
 19  9  1  0  0  0  0
 20 15  2  0  0  0  0
 21 10  1  0  0  0  0
 22 25  1  0  0  0  0
 23 24  2  0  0  0  0
 23 18  1  0  0  0  0
 24 19  1  0  0  0  0
 25 19  2  0  0  0  0
 26 13  1  0  0  0  0
 27  7  2  0  0  0  0
 28 27  1  0  0  0  0
 29 28  2  0  0  0  0
 29 20  1  0  0  0  0
 30 20  1  0  0  0  0
 31 21  1  0  0  0  0
 32 26  1  0  0  0  0
M  END
>  <ID>
6391365

>  <Supplier>
ChemBridge

>  <clogP>
3.430000000000000e+000

>  <RB>
4

>  <tPSA>
8.869000000000003e+001

>  <Hacc>
4

>  <Hdon>
3

>  <LogSw>
-5.406000000000002e+000

>  <Group>
1

>  <Core>
571

$$$$
9136595
 OpenBabel03312015312D

 25 26  0  0  0  0  0  0  0  0999 V2000
    5.6417    2.2708    0.0000 C   0  0  0  0  0  0  0  0  0  0  0  0
    5.2667    2.9208    0.0000 N   0  0  0  0  0  0  0  0  0  0  0  0
    6.3917    2.2708    0.0000 C   0  0  3  0  0  0  0  0  0  0  0  0
    1.8917    2.2708    0.0000 C   0  0  0  0  0  0  0  0  0  0  0  0
    6.7667    1.6208    0.0000 O   0  0  0  0  0  0  0  0  0  0  0  0
    2.2667    2.9208    0.0000 N   0  0  0  0  0  0  0  0  0  0  0  0
    5.2667    1.6208    0.0000 O   0  0  0  0  0  0  0  0  0  0  0  0
    7.5167    1.6208    0.0000 C   0  0  0  0  0  0  0  0  0  0  0  0
    2.2667    1.6208    0.0000 O   0  0  0  0  0  0  0  0  0  0  0  0
    4.5167    2.9208    0.0000 C   0  0  0  0  0  0  0  0  0  0  0  0
    3.0167    2.9208    0.0000 C   0  0  0  0  0  0  0  0  0  0  0  0
    7.8917    0.9708    0.0000 C   0  0  0  0  0  0  0  0  0  0  0  0
    4.1417    2.2708    0.0000 C   0  0  0  0  0  0  0  0  0  0  0  0
    4.1417    3.5708    0.0000 C   0  0  0  0  0  0  0  0  0  0  0  0
    3.3917    3.5708    0.0000 C   0  0  0  0  0  0  0  0  0  0  0  0
    3.3917    2.2708    0.0000 C   0  0  0  0  0  0  0  0  0  0  0  0
    8.6417    0.9708    0.0000 C   0  0  0  0  0  0  0  0  0  0  0  0
    8.6417    2.2708    0.0000 C   0  0  0  0  0  0  0  0  0  0  0  0
    1.1417    2.2708    0.0000 C   0  0  0  0  0  0  0  0  0  0  0  0
    7.8917    2.2708    0.0000 C   0  0  0  0  0  0  0  0  0  0  0  0
    6.7667    2.9208    0.0000 C   0  0  0  0  0  0  0  0  0  0  0  0
    9.0167    1.6208    0.0000 C   0  0  0  0  0  0  0  0  0  0  0  0
    9.0167    0.3208    0.0000 C   0  0  0  0  0  0  0  0  0  0  0  0
    0.7667    1.6208    0.0000 C   0  0  0  0  0  0  0  0  0  0  0  0
    7.5167    2.9208    0.0000 C   0  0  0  0  0  0  0  0  0  0  0  0
  2  1  1  0  0  0  0
  3  1  1  0  0  0  0
  4  6  1  0  0  0  0
  5  3  1  0  0  0  0
  6 11  1  0  0  0  0
  7  1  2  0  0  0  0
  8  5  1  0  0  0  0
  9  4  2  0  0  0  0
 10  2  1  0  0  0  0
 11 15  1  0  0  0  0
 12  8  1  0  0  0  0
 13 10  2  0  0  0  0
 14 10  1  0  0  0  0
 15 14  2  0  0  0  0
 16 13  1  0  0  0  0
 16 11  2  0  0  0  0
 17 12  2  0  0  0  0
 17 22  1  0  0  0  0
 18 20  1  0  0  0  0
 19  4  1  0  0  0  0
 20  8  2  0  0  0  0
 21  3  1  0  0  0  0
 22 18  2  0  0  0  0
 23 17  1  0  0  0  0
 24 19  1  0  0  0  0
 25 21  1  0  0  0  0
M  END
>  <ID>
9136595

>  <Supplier>
ChemBridge

>  <clogP>
3.562000000000000e+000

>  <RB>
5

>  <tPSA>
6.743000000000001e+001

>  <Hacc>
3

>  <Hdon>
2

>  <LogSw>
-4.723999999999998e+000

>  <Group>
2

$$$$
6753518
 OpenBabel03312015312D

 27 30  0  0  0  0  0  0  0  0999 V2000
    5.7792    1.4000    0.0000 N   0  0  0  0  0  0  0  0  0  0  0  0
    2.0292    1.4000    0.0000 N   0  0  0  0  0  0  0  0  0  0  0  0
    3.5292    1.4000    0.0000 N   0  0  0  0  0  0  0  0  0  0  0  0
    6.5292    1.4000    0.0000 C   0  0  0  0  0  0  0  0  0  0  0  0
    4.2792    1.4000    0.0000 C   0  0  0  0  0  0  0  0  0  0  0  0
    4.6542    0.7500    0.0000 C   0  0  0  0  0  0  0  0  0  0  0  0
    4.6542    2.0500    0.0000 C   0  0  0  0  0  0  0  0  0  0  0  0
    5.4042    0.7500    0.0000 C   0  0  0  0  0  0  0  0  0  0  0  0
    5.4042    2.0500    0.0000 C   0  0  0  0  0  0  0  0  0  0  0  0
    2.4042    0.7500    0.0000 C   0  0  0  0  0  0  0  0  0  0  0  0
    2.4042    2.0500    0.0000 C   0  0  0  0  0  0  0  0  0  0  0  0
    3.1542    0.7500    0.0000 C   0  0  0  0  0  0  0  0  0  0  0  0
    3.1542    2.0500    0.0000 C   0  0  0  0  0  0  0  0  0  0  0  0
    1.2792    1.4000    0.0000 C   0  0  0  0  0  0  0  0  0  0  0  0
    6.9042    0.7500    0.0000 O   0  0  0  0  0  0  0  0  0  0  0  0
    6.9042    2.0500    0.0000 C   0  0  0  0  0  0  0  0  0  0  0  0
    7.6542    2.0500    0.0000 C   0  0  0  0  0  0  0  0  0  0  0  0
    8.0292    2.7083    0.0000 C   0  0  0  0  0  0  0  0  0  0  0  0
    0.9042    2.0500    0.0000 C   0  0  0  0  0  0  0  0  0  0  0  0
    0.9042    0.7500    0.0000 C   0  0  0  0  0  0  0  0  0  0  0  0
    8.7792    2.7833    0.0000 C   0  0  0  0  0  0  0  0  0  0  0  0
    7.7292    3.3958    0.0000 C   0  0  0  0  0  0  0  0  0  0  0  0
    0.1542    2.0500    0.0000 C   0  0  0  0  0  0  0  0  0  0  0  0
    0.1542    0.7500    0.0000 C   0  0  0  0  0  0  0  0  0  0  0  0
    8.9375    3.5208    0.0000 C   0  0  0  0  0  0  0  0  0  0  0  0
    8.2875    3.8958    0.0000 C   0  0  0  0  0  0  0  0  0  0  0  0
   -0.2208    1.4000    0.0000 C   0  0  0  0  0  0  0  0  0  0  0  0
  2 11  1  0  0  0  0
  3  5  1  0  0  0  0
  4  1  1  0  0  0  0
  5  7  1  0  0  0  0
  6  8  1  0  0  0  0
  6  5  1  0  0  0  0
  7  9  1  0  0  0  0
  8  1  1  0  0  0  0
  9  1  1  0  0  0  0
 10 12  1  0  0  0  0
 10  2  1  0  0  0  0
 11 13  1  0  0  0  0
 12  3  1  0  0  0  0
 13  3  1  0  0  0  0
 14  2  1  0  0  0  0
 15  4  2  0  0  0  0
 16  4  1  0  0  0  0
 17 16  1  0  0  0  0
 18 17  1  0  0  0  0
 19 14  2  0  0  0  0
 20 14  1  0  0  0  0
 21 18  1  0  0  0  0
 22 18  1  0  0  0  0
 23 19  1  0  0  0  0
 24 20  2  0  0  0  0
 25 21  1  0  0  0  0
 26 22  1  0  0  0  0
 26 25  1  0  0  0  0
 27 24  1  0  0  0  0
 27 23  2  0  0  0  0
M  END
>  <ID>
6753518

>  <Supplier>
ChemBridge

>  <clogP>
1.220000000000000e+000

>  <RB>
5

>  <tPSA>
1.013900000000000e+002

>  <Hacc>
6

>  <Hdon>
2

>  <LogSw>
-2.936000000000000e+000

>  <Group>
3

>  <Core>
162

$$$$
5772356
 OpenBabel03312015312D

 14 15  0  0  0  0  0  0  0  0999 V2000
    0.7500    0.5625    0.0000 N   0  0  0  0  0  0  0  0  0  0  0  0
   -2.9125   -0.0542    0.0000 S   0  0  0  0  0  0  0  0  0  0  0  0
    1.8875    1.4000    0.0000 N   0  0  0  0  0  0  0  0  0  0  0  0
    1.1875   -0.8000    0.0000 C   0  0  0  0  0  0  0  0  0  0  0  0
   -0.6958    0.5625    0.0000 C   0  0  3  0  0  0  0  0  0  0  0  0
   -1.5708   -0.5542    0.0000 C   0  0  0  0  0  0  0  0  0  0  0  0
    2.6042   -0.8000    0.0000 C   0  0  0  0  0  0  0  0  0  0  0  0
    3.0500    0.5625    0.0000 C   0  0  0  0  0  0  0  0  0  0  0  0
   -4.3333    0.1458    0.0000 O   0  0  0  0  0  0  0  0  0  0  0  0
   -3.5333   -1.3375    0.0000 O   0  0  0  0  0  0  0  0  0  0  0  0
   -1.4708    1.7458    0.0000 C   0  0  0  0  0  0  0  0  0  0  0  0
   -2.8500    1.3625    0.0000 C   0  0  0  0  0  0  0  0  0  0  0  0
    0.3500   -1.9792    0.0000 C   0  0  0  0  0  0  0  0  0  0  0  0
    4.4042    1.0000    0.0000 C   0  0  0  0  0  0  0  0  0  0  0  0
  2  6  1  0  0  0  0
  3  1  1  0  0  0  0
  4  1  1  0  0  0  0
  5  1  1  0  0  0  0
  6  5  1  0  0  0  0
  7  4  2  0  0  0  0
  7  8  1  0  0  0  0
  8  3  2  0  0  0  0
  9  2  2  0  0  0  0
 10  2  2  0  0  0  0
 11  5  1  0  0  0  0
 12 11  1  0  0  0  0
 12  2  1  0  0  0  0
 13  4  1  0  0  0  0
 14  8  1  0  0  0  0
M  END
>  <ID>
5772356

>  <Supplier>
ChemBridge

>  <clogP>
-2.050000000000000e+000

>  <RB>
1

>  <tPSA>
5.195999999999998e+001

>  <Hacc>
4

>  <Hdon>
0

>  <LogSw>
6.689999999999998e-001

>  <Group>
1

$$$$
5922619
 OpenBabel03312015312D

 32 34  0  0  0  0  0  0  0  0999 V2000
    1.1000   -1.3500    0.0000 S   0  0  0  0  0  0  0  0  0  0  0  0
   -1.1000   -0.5875    0.0000 C   0  0  0  0  0  0  0  0  0  0  0  0
   -1.5333    0.1708    0.0000 C   0  0  0  0  0  0  0  0  0  0  0  0
   -3.7208    0.8333    0.0000 C   0  0  0  0  0  0  0  0  0  0  0  0
   -2.3833    0.1625    0.0000 N   0  0  0  0  0  0  0  0  0  0  0  0
    0.2042   -1.3500    0.0000 C   0  0  0  0  0  0  0  0  0  0  0  0
   -0.2208   -0.5875    0.0000 C   0  0  0  0  0  0  0  0  0  0  0  0
    1.9542   -1.3500    0.0000 N   0  0  0  0  0  0  0  0  0  0  0  0
   -2.8500    0.8500    0.0000 C   0  0  0  0  0  0  0  0  0  0  0  0
   -4.1333    0.0708    0.0000 C   0  0  0  0  0  0  0  0  0  0  0  0
    4.6042    0.1708    0.0000 C   0  0  0  0  0  0  0  0  0  0  0  0
    1.1000   -2.2292    0.0000 O   0  0  0  0  0  0  0  0  0  0  0  0
    1.1000   -0.4667    0.0000 O   0  0  0  0  0  0  0  0  0  0  0  0
   -1.5500   -1.3500    0.0000 C   0  0  0  0  0  0  0  0  0  0  0  0
    3.7292    0.1708    0.0000 C   0  0  0  0  0  0  0  0  0  0  0  0
   -1.0625    0.9208    0.0000 O   0  0  0  0  0  0  0  0  0  0  0  0
    2.4042   -0.5875    0.0000 C   0  0  0  0  0  0  0  0  0  0  0  0
    3.3000   -0.5875    0.0000 C   0  0  0  0  0  0  0  0  0  0  0  0
   -3.6708   -0.6792    0.0000 O   0  0  0  0  0  0  0  0  0  0  0  0
    5.0500    0.9458    0.0000 O   0  0  0  0  0  0  0  0  0  0  0  0
   -0.2208   -2.1042    0.0000 C   0  0  0  0  0  0  0  0  0  0  0  0
   -1.1208   -2.1042    0.0000 C   0  0  0  0  0  0  0  0  0  0  0  0
   -4.9583    0.0708    0.0000 O   0  0  0  0  0  0  0  0  0  0  0  0
    4.9667   -0.6000    0.0000 O   0  0  0  0  0  0  0  0  0  0  0  0
   -2.4125   -1.3375    0.0000 Cl  0  0  0  0  0  0  0  0  0  0  0  0
   -4.1958    1.5625    0.0000 C   0  0  0  0  0  0  0  0  0  0  0  0
   -2.4625    1.6458    0.0000 C   0  0  0  0  0  0  0  0  0  0  0  0
    3.2792    0.9333    0.0000 C   0  0  0  0  0  0  0  0  0  0  0  0
    2.4042    0.9333    0.0000 C   0  0  0  0  0  0  0  0  0  0  0  0
    1.9542    0.1708    0.0000 C   0  0  0  0  0  0  0  0  0  0  0  0
   -3.7625    2.3708    0.0000 C   0  0  0  0  0  0  0  0  0  0  0  0
   -2.9125    2.3625    0.0000 C   0  0  0  0  0  0  0  0  0  0  0  0
  2  7  2  0  0  0  0
  2 14  1  0  0  0  0
  3  2  1  0  0  0  0
  4  9  2  0  0  0  0
  5  3  1  0  0  0  0
  6  1  1  0  0  0  0
  7  6  1  0  0  0  0
  8  1  1  0  0  0  0
  9  5  1  0  0  0  0
 10  4  1  0  0  0  0
 11 15  1  0  0  0  0
 12  1  2  0  0  0  0
 13  1  2  0  0  0  0
 14 22  2  0  0  0  0
 15 18  2  0  0  0  0
 15 28  1  0  0  0  0
 16  3  2  0  0  0  0
 17  8  1  0  0  0  0
 18 17  1  0  0  0  0
 19 10  2  0  0  0  0
 20 11  2  0  0  0  0
 21  6  2  0  0  0  0
 22 21  1  0  0  0  0
 23 10  1  0  0  0  0
 24 11  1  0  0  0  0
 25 14  1  0  0  0  0
 26  4  1  0  0  0  0
 27  9  1  0  0  0  0
 28 29  2  0  0  0  0
 29 30  1  0  0  0  0
 30 17  2  0  0  0  0
 31 32  1  0  0  0  0
 31 26  2  0  0  0  0
 32 27  2  0  0  0  0
M  END
>  <ID>
5922619

>  <Supplier>
ChemBridge

>  <clogP>
3.910000000000000e+000

>  <RB>
6

>  <tPSA>
1.498700000000000e+002

>  <Hacc>
7

>  <Hdon>
4

>  <LogSw>
-6.000000000000000e+000

>  <Group>
1

>  <Core>
272

$$$$
7195504
 OpenBabel03312015312D

 25 27  0  0  0  0  0  0  0  0999 V2000
    6.3667   -1.3042    0.0000 N   0  0  0  0  0  0  0  0  0  0  0  0
    5.7917   -0.9625    0.0000 C   0  0  0  0  0  0  0  0  0  0  0  0
    6.9542   -0.9792    0.0000 C   0  0  0  0  0  0  0  0  0  0  0  0
    5.8000   -0.2875    0.0000 N   0  0  0  0  0  0  0  0  0  0  0  0
    6.9667   -0.3125    0.0000 N   0  0  0  0  0  0  0  0  0  0  0  0
    6.3792   -2.2750    0.0000 N   0  0  0  0  0  0  0  0  0  0  0  0
    6.3750   -2.9792    0.0000 C   0  0  0  0  0  0  0  0  0  0  0  0
    5.1167   -0.9750    0.0000 C   0  0  0  0  0  0  0  0  0  0  0  0
    4.4167   -4.0917    0.0000 C   0  0  0  0  0  0  0  0  0  0  0  0
    7.7542   -1.0000    0.0000 S   0  0  0  0  0  0  0  0  0  0  0  0
    3.7625   -4.4625    0.0000 N   0  0  0  0  0  0  0  0  0  0  0  0
    5.0625   -4.4750    0.0000 C   0  0  0  0  0  0  0  0  0  0  0  0
    4.4167   -3.3417    0.0000 C   0  0  0  0  0  0  0  0  0  0  0  0
    5.7250   -3.3500    0.0000 C   0  0  0  0  0  0  0  0  0  0  0  0
    5.0750   -2.9750    0.0000 C   0  0  0  0  0  0  0  0  0  0  0  0
    5.7167   -4.1042    0.0000 C   0  0  0  0  0  0  0  0  0  0  0  0
    3.7542   -5.2125    0.0000 C   0  0  0  0  0  0  0  0  0  0  0  0
    3.1167   -4.0792    0.0000 C   0  0  0  0  0  0  0  0  0  0  0  0
    4.7667   -0.3917    0.0000 C   0  0  0  0  0  0  0  0  0  0  0  0
    4.7917   -1.5625    0.0000 C   0  0  0  0  0  0  0  0  0  0  0  0
    2.4667   -4.4417    0.0000 C   0  0  0  0  0  0  0  0  0  0  0  0
    3.1042   -5.5792    0.0000 C   0  0  0  0  0  0  0  0  0  0  0  0
    4.1125   -1.5750    0.0000 C   0  0  0  0  0  0  0  0  0  0  0  0
    4.0917   -0.4042    0.0000 C   0  0  0  0  0  0  0  0  0  0  0  0
    3.7667   -0.9917    0.0000 C   0  0  0  0  0  0  0  0  0  0  0  0
  2  1  1  0  0  0  0
  3  1  1  0  0  0  0
  4  2  2  0  0  0  0
  4  5  1  0  0  0  0
  5  3  2  0  0  0  0
  6  1  1  0  0  0  0
  7  6  2  0  0  0  0
  8  2  1  0  0  0  0
  9 12  1  0  0  0  0
 10  3  1  0  0  0  0
 11  9  1  0  0  0  0
 12 16  2  0  0  0  0
 13 15  1  0  0  0  0
 13  9  2  0  0  0  0
 14  7  1  0  0  0  0
 15 14  2  0  0  0  0
 16 14  1  0  0  0  0
 17 11  1  0  0  0  0
 18 11  1  0  0  0  0
 19  8  1  0  0  0  0
 20  8  1  0  0  0  0
 21 18  1  0  0  0  0
 22 17  1  0  0  0  0
 23 20  1  0  0  0  0
 24 19  1  0  0  0  0
 24 25  1  0  0  0  0
 25 23  1  0  0  0  0
M  END
>  <ID>
7195504

>  <Supplier>
ChemBridge

>  <clogP>
4.230000000000000e+000

>  <RB>
3

>  <tPSA>
4.631000000000000e+001

>  <Hacc>
4

>  <Hdon>
0

>  <LogSw>
-5.419000000000001e+000

>  <Group>
1

>  <Core>
292

$$$$
6401451
 OpenBabel03312015312D

 28 29  0  0  0  0  0  0  0  0999 V2000
    6.0917   -4.4542    0.0000 S   0  0  0  0  0  0  0  0  0  0  0  0
    6.0917   -3.6292    0.0000 N   0  0  0  0  0  0  0  0  0  0  0  0
   10.3792   -3.6292    0.0000 C   0  0  0  0  0  0  0  0  0  0  0  0
   11.1000   -3.2250    0.0000 C   0  0  0  0  0  0  0  0  0  0  0  0
    6.8125   -3.2167    0.0000 C   0  0  0  0  0  0  0  0  0  0  0  0
    5.3792   -3.2167    0.0000 C   0  0  0  0  0  0  0  0  0  0  0  0
    7.5250   -3.6292    0.0000 C   0  0  0  0  0  0  0  0  0  0  0  0
    4.6667   -3.6417    0.0000 C   0  0  0  0  0  0  0  0  0  0  0  0
   10.3792   -4.4625    0.0000 C   0  0  0  0  0  0  0  0  0  0  0  0
    6.9167   -4.4542    0.0000 O   0  0  0  0  0  0  0  0  0  0  0  0
    6.6792   -5.0375    0.0000 O   0  0  0  0  0  0  0  0  0  0  0  0
    9.6667   -3.2125    0.0000 C   0  0  0  0  0  0  0  0  0  0  0  0
    8.2417   -3.2167    0.0000 N   0  0  0  0  0  0  0  0  0  0  0  0
    3.9417   -3.2167    0.0000 C   0  0  0  0  0  0  0  0  0  0  0  0
    8.9542   -3.6292    0.0000 C   0  0  0  0  0  0  0  0  0  0  0  0
    3.9500   -2.3875    0.0000 C   0  0  0  0  0  0  0  0  0  0  0  0
    5.3792   -2.3875    0.0000 C   0  0  0  0  0  0  0  0  0  0  0  0
    7.5250   -4.4542    0.0000 O   0  0  0  0  0  0  0  0  0  0  0  0
   11.8167   -3.6417    0.0000 F   0  0  0  0  0  0  0  0  0  0  0  0
   11.1042   -2.4000    0.0000 F   0  0  0  0  0  0  0  0  0  0  0  0
   11.3042   -4.0250    0.0000 F   0  0  0  0  0  0  0  0  0  0  0  0
    4.6792   -1.9750    0.0000 C   0  0  0  0  0  0  0  0  0  0  0  0
    9.6625   -4.8667    0.0000 C   0  0  0  0  0  0  0  0  0  0  0  0
    5.3792   -4.8625    0.0000 C   0  0  0  0  0  0  0  0  0  0  0  0
    8.9500   -4.4542    0.0000 C   0  0  0  0  0  0  0  0  0  0  0  0
   11.0917   -4.8792    0.0000 Cl  0  0  0  0  0  0  0  0  0  0  0  0
    3.2292   -3.6167    0.0000 C   0  0  0  0  0  0  0  0  0  0  0  0
    3.2417   -1.9667    0.0000 C   0  0  0  0  0  0  0  0  0  0  0  0
  2  1  1  0  0  0  0
  3 12  2  0  0  0  0
  4  3  1  0  0  0  0
  5  2  1  0  0  0  0
  6  2  1  0  0  0  0
  7  5  1  0  0  0  0
  8  6  1  0  0  0  0
  9 23  2  0  0  0  0
  9  3  1  0  0  0  0
 10  1  2  0  0  0  0
 11  1  2  0  0  0  0
 12 15  1  0  0  0  0
 13  7  1  0  0  0  0
 14  8  2  0  0  0  0
 15 13  1  0  0  0  0
 16 22  2  0  0  0  0
 16 14  1  0  0  0  0
 17  6  2  0  0  0  0
 18  7  2  0  0  0  0
 19  4  1  0  0  0  0
 20  4  1  0  0  0  0
 21  4  1  0  0  0  0
 22 17  1  0  0  0  0
 23 25  1  0  0  0  0
 24  1  1  0  0  0  0
 25 15  2  0  0  0  0
 26  9  1  0  0  0  0
 27 14  1  0  0  0  0
 28 16  1  0  0  0  0
M  END
>  <ID>
6401451

>  <Supplier>
ChemBridge

>  <clogP>
5.080000000000000e+000

>  <RB>
4

>  <tPSA>
6.647999999999998e+001

>  <Hacc>
3

>  <Hdon>
1

>  <LogSw>
-6.708000000000000e+000

>  <Group>
3

>  <Core>
084

$$$$
6401450
 OpenBabel03312015312D

 18 19  0  0  0  0  0  0  0  0999 V2000
    0.4042    0.1583    0.0000 S   0  0  0  0  0  0  0  0  0  0  0  0
   -0.4125    0.1625    0.0000 C   0  0  0  0  0  0  0  0  0  0  0  0
   -0.8333   -0.5417    0.0000 C   0  0  0  0  0  0  0  0  0  0  0  0
    1.2375    0.1583    0.0000 N   0  0  0  0  0  0  0  0  0  0  0  0
   -1.6500   -0.5375    0.0000 C   0  0  0  0  0  0  0  0  0  0  0  0
   -0.8208    0.8833    0.0000 C   0  0  0  0  0  0  0  0  0  0  0  0
   -0.0083   -0.5542    0.0000 O   0  0  0  0  0  0  0  0  0  0  0  0
    0.0000    0.8708    0.0000 O   0  0  0  0  0  0  0  0  0  0  0  0
   -2.0625    0.1833    0.0000 C   0  0  0  0  0  0  0  0  0  0  0  0
   -1.6458    0.8875    0.0000 C   0  0  0  0  0  0  0  0  0  0  0  0
   -0.4208   -1.2542    0.0000 Cl  0  0  0  0  0  0  0  0  0  0  0  0
   -2.0708   -1.2500    0.0000 Cl  0  0  0  0  0  0  0  0  0  0  0  0
    2.8917    0.1458    0.0000 O   0  0  0  0  0  0  0  0  0  0  0  0
    1.6417    0.8625    0.0000 C   0  0  0  0  0  0  0  0  0  0  0  0
    1.6500   -0.5667    0.0000 C   0  0  0  0  0  0  0  0  0  0  0  0
   -2.8958    0.1833    0.0000 Cl  0  0  0  0  0  0  0  0  0  0  0  0
    2.4750   -0.5667    0.0000 C   0  0  0  0  0  0  0  0  0  0  0  0
    2.4792    0.8625    0.0000 C   0  0  0  0  0  0  0  0  0  0  0  0
  2  1  1  0  0  0  0
  3  2  1  0  0  0  0
  4  1  1  0  0  0  0
  5  3  2  0  0  0  0
  6  2  2  0  0  0  0
  7  1  2  0  0  0  0
  8  1  2  0  0  0  0
  9 10  2  0  0  0  0
  9  5  1  0  0  0  0
 10  6  1  0  0  0  0
 11  3  1  0  0  0  0
 12  5  1  0  0  0  0
 13 17  1  0  0  0  0
 13 18  1  0  0  0  0
 14  4  1  0  0  0  0
 15  4  1  0  0  0  0
 16  9  1  0  0  0  0
 17 15  1  0  0  0  0
 18 14  1  0  0  0  0
M  END
>  <ID>
6401450

>  <Supplier>
ChemBridge

>  <clogP>
3.000000000000000e+000

>  <RB>
1

>  <tPSA>
4.661000000000000e+001

>  <Hacc>
4

>  <Hdon>
0

>  <LogSw>
-4.173000000000000e+000

>  <Group>
3

$$$$
6839486
 OpenBabel03312015312D

 26 28  0  0  0  0  0  0  0  0999 V2000
    0.3292   -1.4250    0.0000 N   0  0  0  0  0  0  0  0  0  0  0  0
    0.4167   -0.6000    0.0000 C   0  0  0  0  0  0  0  0  0  0  0  0
    1.0917   -1.7625    0.0000 C   0  0  0  0  0  0  0  0  0  0  0  0
    1.2292   -0.4250    0.0000 C   0  0  0  0  0  0  0  0  0  0  0  0
    1.6500   -1.1292    0.0000 C   0  0  0  0  0  0  0  0  0  0  0  0
    5.3542   -0.3542    0.0000 N   0  3  0  0  0  0  0  0  0  0  0  0
    1.6250    0.2958    0.0000 C   0  0  0  0  0  0  0  0  0  0  0  0
    2.4417    0.3083    0.0000 C   0  0  0  0  0  0  0  0  0  0  0  0
    2.8417    1.0333    0.0000 C   0  0  0  0  0  0  0  0  0  0  0  0
   -0.3875   -1.8500    0.0000 C   0  0  0  0  0  0  0  0  0  0  0  0
    4.9292    0.3583    0.0000 C   0  0  0  0  0  0  0  0  0  0  0  0
    3.6750    1.0500    0.0000 C   0  0  0  0  0  0  0  0  0  0  0  0
    2.4667   -1.1167    0.0000 C   0  0  0  0  0  0  0  0  0  0  0  0
    4.1000    0.3375    0.0000 C   0  0  0  0  0  0  0  0  0  0  0  0
   -0.2083   -0.0417    0.0000 O   0  0  0  0  0  0  0  0  0  0  0  0
    1.2667   -2.5750    0.0000 O   0  0  0  0  0  0  0  0  0  0  0  0
    4.9625   -1.0750    0.0000 O   0  5  0  0  0  0  0  0  0  0  0  0
    6.1792   -0.3375    0.0000 O   0  0  0  0  0  0  0  0  0  0  0  0
    2.8667   -0.4000    0.0000 C   0  0  0  0  0  0  0  0  0  0  0  0
    2.4167    1.7375    0.0000 O   0  0  0  0  0  0  0  0  0  0  0  0
    4.0667    1.7708    0.0000 C   0  0  0  0  0  0  0  0  0  0  0  0
    5.3292    1.0833    0.0000 C   0  0  0  0  0  0  0  0  0  0  0  0
    4.8917    1.7958    0.0000 C   0  0  0  0  0  0  0  0  0  0  0  0
   -0.3833   -2.6750    0.0000 C   0  0  0  0  0  0  0  0  0  0  0  0
   -0.6083   -1.0542    0.0000 C   0  0  0  0  0  0  0  0  0  0  0  0
   -1.1083   -1.4417    0.0000 C   0  0  0  0  0  0  0  0  0  0  0  0
  2  1  1  0  0  0  0
  3  1  1  0  0  0  0
  4  2  1  0  0  0  0
  5  3  1  0  0  0  0
  5  4  2  0  0  0  0
  6 11  1  0  0  0  0
  7  4  1  0  0  0  0
  8  7  2  0  0  0  0
  8 19  1  0  0  0  0
  9  8  1  0  0  0  0
 10  1  1  0  0  0  0
 11 14  1  0  0  0  0
 12  9  1  0  0  0  0
 13  5  1  0  0  0  0
 14 12  2  0  0  0  0
 15  2  2  0  0  0  0
 16  3  2  0  0  0  0
 17  6  1  0  0  0  0
 18  6  2  0  0  0  0
 19 13  2  0  0  0  0
 20  9  2  0  0  0  0
 21 12  1  0  0  0  0
 22 23  1  0  0  0  0
 22 11  2  0  0  0  0
 23 21  2  0  0  0  0
 24 10  1  0  0  0  0
 25 10  1  0  0  0  0
 26 10  1  0  0  0  0
M  CHG  2   6   1  17  -1
M  END
>  <ID>
6839486

>  <Supplier>
ChemBridge

>  <clogP>
3.880000000000000e+000

>  <RB>
3

>  <tPSA>
9.759000000000000e+001

>  <Hacc>
5

>  <Hdon>
0

>  <LogSw>
-5.473000000000002e+000

>  <Group>
3

>  <Core>
418

$$$$
9129340
 OpenBabel03312015312D

 23 26  0  0  0  0  0  0  0  0999 V2000
    5.3750    1.8333    0.0000 C   0  0  0  0  0  0  0  0  0  0  0  0
    6.1250    1.8333    0.0000 C   0  0  0  0  0  0  0  0  0  0  0  0
    4.9292    2.4458    0.0000 O   0  0  0  0  0  0  0  0  0  0  0  0
    4.9292    1.2250    0.0000 C   0  0  0  0  0  0  0  0  0  0  0  0
    1.8875    3.4250    0.0000 N   0  0  3  0  0  0  0  0  0  0  0  0
    4.2167    2.2083    0.0000 C   0  0  0  0  0  0  0  0  0  0  0  0
    4.2167    1.4583    0.0000 C   0  0  0  0  0  0  0  0  0  0  0  0
    2.4042    2.8833    0.0000 C   0  0  3  0  0  0  0  0  0  0  0  0
    2.9292    2.3458    0.0000 N   0  0  0  0  0  0  0  0  0  0  0  0
    6.5000    1.1833    0.0000 C   0  0  0  0  0  0  0  0  0  0  0  0
    2.6125    3.6083    0.0000 C   0  0  0  0  0  0  0  0  0  0  0  0
    6.5000    2.4833    0.0000 C   0  0  0  0  0  0  0  0  0  0  0  0
    1.6792    2.7083    0.0000 C   0  0  3  0  0  0  0  0  0  0  0  0
    3.6125    2.6500    0.0000 C   0  0  0  0  0  0  0  0  0  0  0  0
    7.2500    1.1833    0.0000 C   0  0  0  0  0  0  0  0  0  0  0  0
    1.1542    3.2458    0.0000 C   0  0  0  0  0  0  0  0  0  0  0  0
    1.4667    1.9833    0.0000 C   0  0  0  0  0  0  0  0  0  0  0  0
    1.3625    3.9625    0.0000 C   0  0  0  0  0  0  0  0  0  0  0  0
    1.1042    2.6458    0.0000 C   0  0  0  0  0  0  0  0  0  0  0  0
    7.2500    2.4833    0.0000 C   0  0  0  0  0  0  0  0  0  0  0  0
    6.1250    0.5333    0.0000 Cl  0  0  0  0  0  0  0  0  0  0  0  0
    7.6250    1.8333    0.0000 C   0  0  0  0  0  0  0  0  0  0  0  0
    7.6250    3.1333    0.0000 Cl  0  0  0  0  0  0  0  0  0  0  0  0
  2  1  1  0  0  0  0
  3  1  1  0  0  0  0
  4  1  2  0  0  0  0
  5 11  1  0  0  0  0
  6  3  1  0  0  0  0
  7  4  1  0  0  0  0
  7  6  2  0  0  0  0
  8  9  1  0  0  0  0
  9 14  1  0  0  0  0
 10  2  2  0  0  0  0
 11  8  1  0  0  0  0
 12  2  1  0  0  0  0
 13  8  1  0  0  0  0
 14  6  1  0  0  0  0
 15 10  1  0  0  0  0
 15 22  2  0  0  0  0
 16 13  1  0  0  0  0
 17 13  1  0  0  0  0
 18 16  1  0  0  0  0
 18  5  1  0  0  0  0
 19 17  1  0  0  0  0
 19  5  1  0  0  0  0
 20 12  2  0  0  0  0
 21 10  1  0  0  0  0
 22 20  1  0  0  0  0
 23 20  1  0  0  0  0
M  END
>  <ID>
9129340

>  <Supplier>
ChemBridge

>  <clogP>
4.577000000000000e+000

>  <RB>
4

>  <tPSA>
2.841000000000000e+001

>  <Hacc>
3

>  <Hdon>
1

>  <LogSw>
-4.661999999999997e+000

>  <Group>
2

$$$$
5732869
 OpenBabel03312015312D

 29 32  0  0  0  0  0  0  0  0999 V2000
    0.6875    0.0083    0.0000 N   0  0  0  0  0  0  0  0  0  0  0  0
    0.6875   -0.7417    0.0000 C   0  0  0  0  0  0  0  0  0  0  0  0
    1.9792   -0.7417    0.0000 C   0  0  0  0  0  0  0  0  0  0  0  0
    1.9792    0.0083    0.0000 C   0  0  0  0  0  0  0  0  0  0  0  0
    1.3292   -1.1167    0.0000 S   0  0  0  0  0  0  0  0  0  0  0  0
    0.4750   -5.4417    0.0000 N   0  3  0  0  0  0  0  0  0  0  0  0
    2.6292   -1.1167    0.0000 C   0  0  0  0  0  0  0  0  0  0  0  0
    2.2542   -3.0167    0.0000 C   0  0  0  0  0  0  0  0  0  0  0  0
    2.0292   -2.3042    0.0000 O   0  0  0  0  0  0  0  0  0  0  0  0
    2.6292   -1.8667    0.0000 C   0  0  0  0  0  0  0  0  0  0  0  0
    0.9167   -4.8375    0.0000 C   0  0  0  0  0  0  0  0  0  0  0  0
    3.0042   -3.0250    0.0000 C   0  0  0  0  0  0  0  0  0  0  0  0
    1.6667   -4.9167    0.0000 C   0  0  0  0  0  0  0  0  0  0  0  0
    1.8042   -3.6292    0.0000 C   0  0  0  0  0  0  0  0  0  0  0  0
    3.2375   -2.3125    0.0000 C   0  0  0  0  0  0  0  0  0  0  0  0
    2.1042   -4.3125    0.0000 C   0  0  0  0  0  0  0  0  0  0  0  0
    0.1542    0.5375    0.0000 C   0  0  0  0  0  0  0  0  0  0  0  0
    0.0375   -1.1167    0.0000 O   0  0  0  0  0  0  0  0  0  0  0  0
    0.6167   -4.1500    0.0000 C   0  0  0  0  0  0  0  0  0  0  0  0
   -0.2708   -5.3542    0.0000 O   0  5  0  0  0  0  0  0  0  0  0  0
    0.7750   -6.1292    0.0000 O   0  0  0  0  0  0  0  0  0  0  0  0
    2.5167    0.5375    0.0000 O   0  0  0  0  0  0  0  0  0  0  0  0
    1.0625   -3.5417    0.0000 C   0  0  0  0  0  0  0  0  0  0  0  0
    1.9667   -5.6042    0.0000 C   0  0  0  0  0  0  0  0  0  0  0  0
   -0.5708    0.3458    0.0000 C   0  0  0  0  0  0  0  0  0  0  0  0
    0.3500    1.2625    0.0000 C   0  0  0  0  0  0  0  0  0  0  0  0
   -0.1833    1.7958    0.0000 C   0  0  0  0  0  0  0  0  0  0  0  0
   -1.1000    0.8708    0.0000 C   0  0  0  0  0  0  0  0  0  0  0  0
   -0.9083    1.5958    0.0000 C   0  0  0  0  0  0  0  0  0  0  0  0
  2  1  1  0  0  0  0
  3  4  1  0  0  0  0
  3  5  1  0  0  0  0
  4  1  1  0  0  0  0
  5  2  1  0  0  0  0
  6 11  1  0  0  0  0
  7  3  2  0  0  0  0
  8  9  1  0  0  0  0
  9 10  1  0  0  0  0
 10  7  1  0  0  0  0
 11 19  1  0  0  0  0
 12 15  1  0  0  0  0
 12  8  2  0  0  0  0
 13 16  1  0  0  0  0
 13 11  2  0  0  0  0
 14  8  1  0  0  0  0
 15 10  2  0  0  0  0
 16 14  2  0  0  0  0
 17  1  1  0  0  0  0
 18  2  2  0  0  0  0
 19 23  2  0  0  0  0
 20  6  1  0  0  0  0
 21  6  2  0  0  0  0
 22  4  2  0  0  0  0
 23 14  1  0  0  0  0
 24 13  1  0  0  0  0
 25 17  2  0  0  0  0
 26 17  1  0  0  0  0
 27 26  2  0  0  0  0
 28 25  1  0  0  0  0
 28 29  2  0  0  0  0
 29 27  1  0  0  0  0
M  CHG  2   6   1  20  -1
M  END
>  <ID>
5732869

>  <Supplier>
ChemBridge

>  <clogP>
5.450000000000000e+000

>  <RB>
3

>  <tPSA>
9.366000000000003e+001

>  <Hacc>
5

>  <Hdon>
0

>  <LogSw>
-7.207000000000000e+000

>  <Group>
1

>  <Core>
002

$$$$
5732863
 OpenBabel03312015312D

 25 26  0  0  0  0  0  0  0  0999 V2000
    2.6042   -3.0292    0.0000 S   0  0  0  0  0  0  0  0  0  0  0  0
    2.6125   -2.2792    0.0000 N   0  0  0  0  0  0  0  0  0  0  0  0
    3.2667   -1.9042    0.0000 C   0  0  0  0  0  0  0  0  0  0  0  0
    3.9125   -2.2917    0.0000 C   0  0  0  0  0  0  0  0  0  0  0  0
    3.3542   -3.0292    0.0000 O   0  0  0  0  0  0  0  0  0  0  0  0
    2.9750   -3.6792    0.0000 O   0  0  0  0  0  0  0  0  0  0  0  0
    1.9625   -1.9042    0.0000 C   0  0  0  0  0  0  0  0  0  0  0  0
    4.5667   -1.9167    0.0000 N   0  0  0  0  0  0  0  0  0  0  0  0
    7.1667   -1.9292    0.0000 N   0  0  0  0  0  0  0  0  0  0  0  0
    3.9042   -3.0417    0.0000 O   0  0  0  0  0  0  0  0  0  0  0  0
    1.3042   -2.2750    0.0000 C   0  0  0  0  0  0  0  0  0  0  0  0
    1.9625   -1.1500    0.0000 C   0  0  0  0  0  0  0  0  0  0  0  0
    5.8667   -1.9250    0.0000 C   0  0  0  0  0  0  0  0  0  0  0  0
    1.9500   -3.4042    0.0000 C   0  0  0  0  0  0  0  0  0  0  0  0
    5.2167   -2.3000    0.0000 C   0  0  0  0  0  0  0  0  0  0  0  0
    0.6625   -1.1500    0.0000 C   0  0  0  0  0  0  0  0  0  0  0  0
    0.6625   -1.9042    0.0000 C   0  0  0  0  0  0  0  0  0  0  0  0
    1.3042   -0.7667    0.0000 C   0  0  0  0  0  0  0  0  0  0  0  0
    6.5167   -2.3042    0.0000 C   0  0  0  0  0  0  0  0  0  0  0  0
    0.0042   -0.7750    0.0000 O   0  0  0  0  0  0  0  0  0  0  0  0
    7.1667   -1.1792    0.0000 C   0  0  0  0  0  0  0  0  0  0  0  0
    5.8667   -1.1792    0.0000 C   0  0  0  0  0  0  0  0  0  0  0  0
    0.0042   -0.0167    0.0000 C   0  0  0  0  0  0  0  0  0  0  0  0
    6.5250   -0.8042    0.0000 C   0  0  0  0  0  0  0  0  0  0  0  0
   -0.6458    0.3583    0.0000 C   0  0  0  0  0  0  0  0  0  0  0  0
  2  1  1  0  0  0  0
  3  2  1  0  0  0  0
  4  3  1  0  0  0  0
  5  1  2  0  0  0  0
  6  1  2  0  0  0  0
  7  2  1  0  0  0  0
  8  4  1  0  0  0  0
  9 19  1  0  0  0  0
  9 21  2  0  0  0  0
 10  4  2  0  0  0  0
 11  7  1  0  0  0  0
 12  7  2  0  0  0  0
 13 15  1  0  0  0  0
 14  1  1  0  0  0  0
 15  8  1  0  0  0  0
 16 18  2  0  0  0  0
 17 11  2  0  0  0  0
 17 16  1  0  0  0  0
 18 12  1  0  0  0  0
 19 13  2  0  0  0  0
 20 16  1  0  0  0  0
 21 24  1  0  0  0  0
 22 13  1  0  0  0  0
 23 20  1  0  0  0  0
 24 22  2  0  0  0  0
 25 23  1  0  0  0  0
M  END
>  <ID>
5732863

>  <Supplier>
ChemBridge

>  <clogP>
1.290000000000000e+000

>  <RB>
5

>  <tPSA>
8.860000000000002e+001

>  <Hacc>
5

>  <Hdon>
1

>  <LogSw>
-1.651000000000000e+000

>  <Group>
3

>  <Core>
084

$$$$
5732864
 OpenBabel03312015312D

 17 18  0  0  0  0  0  0  0  0999 V2000
   -0.2458   -0.4792    0.0000 C   0  0  0  0  0  0  0  0  0  0  0  0
   -0.9083   -0.9625    0.0000 N   0  0  0  0  0  0  0  0  0  0  0  0
    0.5417   -0.7375    0.0000 C   0  0  0  0  0  0  0  0  0  0  0  0
   -0.4958    0.3083    0.0000 N   0  0  0  0  0  0  0  0  0  0  0  0
    1.2167    0.1333    0.0000 N   0  0  0  0  0  0  0  0  0  0  0  0
    2.6417    2.6083    0.0000 C   0  0  0  0  0  0  0  0  0  0  0  0
   -1.3208    0.3083    0.0000 N   0  0  0  0  0  0  0  0  0  0  0  0
   -1.5833   -0.4792    0.0000 C   0  0  0  0  0  0  0  0  0  0  0  0
    2.6417    1.7833    0.0000 C   0  0  0  0  0  0  0  0  0  0  0  0
    1.9375    0.5458    0.0000 C   0  0  0  0  0  0  0  0  0  0  0  0
    0.7125   -1.5417    0.0000 O   0  0  0  0  0  0  0  0  0  0  0  0
    1.9375    1.3708    0.0000 C   0  0  0  0  0  0  0  0  0  0  0  0
    1.9292    3.0208    0.0000 O   0  0  0  0  0  0  0  0  0  0  0  0
    3.3625    3.0208    0.0000 O   0  0  0  0  0  0  0  0  0  0  0  0
    3.3542    1.3708    0.0000 C   0  0  0  0  0  0  0  0  0  0  0  0
    3.3542    0.5458    0.0000 C   0  0  0  0  0  0  0  0  0  0  0  0
    2.6417    0.1333    0.0000 C   0  0  0  0  0  0  0  0  0  0  0  0
  2  1  1  0  0  0  0
  3  1  1  0  0  0  0
  4  1  2  0  0  0  0
  5  3  1  0  0  0  0
  6  9  1  0  0  0  0
  7  4  1  0  0  0  0
  7  8  1  0  0  0  0
  8  2  2  0  0  0  0
  9 12  1  0  0  0  0
  9 15  2  0  0  0  0
 10  5  1  0  0  0  0
 11  3  2  0  0  0  0
 12 10  2  0  0  0  0
 13  6  2  0  0  0  0
 14  6  1  0  0  0  0
 15 16  1  0  0  0  0
 16 17  2  0  0  0  0
 17 10  1  0  0  0  0
M  END
>  <ID>
5732864

>  <Supplier>
ChemBridge

>  <clogP>
1.080000000000000e+000

>  <RB>
3

>  <tPSA>
1.079700000000000e+002

>  <Hacc>
5

>  <Hdon>
3

>  <LogSw>
-1.817000000000000e+000

>  <Group>
3

>  <Core>
148

$$$$
5790359
 OpenBabel03312015312D

 26 28  0  0  0  0  0  0  0  0999 V2000
   -0.0125   -0.0792    0.0000 C   0  0  0  0  0  0  0  0  0  0  0  0
    0.7292   -1.3042    0.0000 N   0  0  0  0  0  0  0  0  0  0  0  0
    1.4667   -0.0792    0.0000 C   0  0  0  0  0  0  0  0  0  0  0  0
    1.4667   -0.8167    0.0000 C   0  0  0  0  0  0  0  0  0  0  0  0
   -0.0125   -0.8167    0.0000 C   0  0  3  0  0  0  0  0  0  0  0  0
   -3.3833   -1.9875    0.0000 N   0  3  0  0  0  0  0  0  0  0  0  0
   -0.7958    0.3125    0.0000 C   0  0  0  0  0  0  0  0  0  0  0  0
   -2.5458   -1.7042    0.0000 C   0  0  0  0  0  0  0  0  0  0  0  0
   -0.8500   -1.1000    0.0000 C   0  0  0  0  0  0  0  0  0  0  0  0
   -4.0500   -1.4000    0.0000 O   0  5  0  0  0  0  0  0  0  0  0  0
    2.0042   -1.0792    0.0000 O   0  0  0  0  0  0  0  0  0  0  0  0
   -0.8458    1.1958    0.0000 C   0  0  0  0  0  0  0  0  0  0  0  0
   -3.5500   -2.8542    0.0000 O   0  0  0  0  0  0  0  0  0  0  0  0
   -1.5208   -0.1667    0.0000 O   0  0  0  0  0  0  0  0  0  0  0  0
    2.2500    0.3125    0.0000 O   0  0  0  0  0  0  0  0  0  0  0  0
   -2.3833   -0.8375    0.0000 C   0  0  0  0  0  0  0  0  0  0  0  0
   -1.8500   -2.2875    0.0000 C   0  0  0  0  0  0  0  0  0  0  0  0
   -1.5500   -0.5167    0.0000 C   0  0  0  0  0  0  0  0  0  0  0  0
   -1.0000   -1.9667    0.0000 C   0  0  0  0  0  0  0  0  0  0  0  0
   -1.6208    1.5458    0.0000 C   0  0  0  0  0  0  0  0  0  0  0  0
   -0.1125    1.7125    0.0000 C   0  0  0  0  0  0  0  0  0  0  0  0
    0.7292   -2.1875    0.0000 C   0  0  0  0  0  0  0  0  0  0  0  0
   -1.0000    2.9333    0.0000 C   0  0  0  0  0  0  0  0  0  0  0  0
   -0.2125    2.5833    0.0000 C   0  0  0  0  0  0  0  0  0  0  0  0
   -1.7125    2.4333    0.0000 C   0  0  0  0  0  0  0  0  0  0  0  0
   -1.0833    3.8125    0.0000 Br  0  0  0  0  0  0  0  0  0  0  0  0
  2  5  1  0  0  0  0
  3  1  2  0  0  0  0
  4  3  1  0  0  0  0
  4  2  1  0  0  0  0
  5  1  1  0  0  0  0
  6  8  1  0  0  0  0
  7  1  1  0  0  0  0
  8 17  1  0  0  0  0
  8 16  2  0  0  0  0
  9  5  1  0  0  0  0
 10  6  1  0  0  0  0
 11  4  2  0  0  0  0
 12  7  1  0  0  0  0
 13  6  2  0  0  0  0
 14  7  2  0  0  0  0
 15  3  1  0  0  0  0
 16 18  1  0  0  0  0
 17 19  2  0  0  0  0
 18  9  2  0  0  0  0
 19  9  1  0  0  0  0
 20 12  1  0  0  0  0
 21 12  2  0  0  0  0
 22  2  1  0  0  0  0
 23 24  2  0  0  0  0
 24 21  1  0  0  0  0
 25 20  2  0  0  0  0
 25 23  1  0  0  0  0
 26 23  1  0  0  0  0
M  CHG  2   6   1  10  -1
M  END
>  <ID>
5790359

>  <Supplier>
ChemBridge

>  <clogP>
3.830000000000000e+000

>  <RB>
3

>  <tPSA>
1.007500000000000e+002

>  <Hacc>
5

>  <Hdon>
1

>  <LogSw>
-5.902000000000000e+000

>  <Group>
1

>  <Core>
095

$$$$
7759993
 OpenBabel03312015312D

 19 21  0  0  0  0  0  0  0  0999 V2000
    4.6500   -2.2542    0.0000 C   0  0  0  0  0  0  0  0  0  0  0  0
    4.6417   -1.4292    0.0000 N   0  0  0  0  0  0  0  0  0  0  0  0
    3.9417   -2.6750    0.0000 N   0  0  0  0  0  0  0  0  0  0  0  0
    3.2167   -2.2542    0.0000 C   0  0  0  0  0  0  0  0  0  0  0  0
    3.2167   -1.4375    0.0000 C   0  0  0  0  0  0  0  0  0  0  0  0
    5.3667   -2.6625    0.0000 N   0  0  0  0  0  0  0  0  0  0  0  0
    6.8750   -2.8542    0.0000 C   0  0  0  0  0  0  0  0  0  0  0  0
    6.1625   -2.4417    0.0000 C   0  0  0  0  0  0  0  0  0  0  0  0
    7.5792   -2.4417    0.0000 C   0  0  0  0  0  0  0  0  0  0  0  0
    3.9375   -3.5000    0.0000 C   0  0  0  0  0  0  0  0  0  0  0  0
    7.5792   -1.6167    0.0000 Cl  0  0  0  0  0  0  0  0  0  0  0  0
    2.5042   -2.6667    0.0000 C   0  0  0  0  0  0  0  0  0  0  0  0
    2.5042   -1.0250    0.0000 C   0  0  0  0  0  0  0  0  0  0  0  0
    6.8667   -3.6792    0.0000 C   0  0  0  0  0  0  0  0  0  0  0  0
    8.2917   -2.8542    0.0000 C   0  0  0  0  0  0  0  0  0  0  0  0
    1.7917   -2.2625    0.0000 C   0  0  0  0  0  0  0  0  0  0  0  0
    1.7917   -1.4375    0.0000 C   0  0  0  0  0  0  0  0  0  0  0  0
    7.5792   -4.0917    0.0000 C   0  0  0  0  0  0  0  0  0  0  0  0
    8.2917   -3.6792    0.0000 C   0  0  0  0  0  0  0  0  0  0  0  0
  2  1  2  0  0  0  0
  3  1  1  0  0  0  0
  4  3  1  0  0  0  0
  5  2  1  0  0  0  0
  5  4  1  0  0  0  0
  6  1  1  0  0  0  0
  7  8  1  0  0  0  0
  8  6  1  0  0  0  0
  9  7  1  0  0  0  0
 10  3  1  0  0  0  0
 11  9  1  0  0  0  0
 12  4  2  0  0  0  0
 13  5  2  0  0  0  0
 14  7  2  0  0  0  0
 15  9  2  0  0  0  0
 16 12  1  0  0  0  0
 16 17  2  0  0  0  0
 17 13  1  0  0  0  0
 18 14  1  0  0  0  0
 19 18  2  0  0  0  0
 19 15  1  0  0  0  0
M  END
>  <ID>
7759993

>  <Supplier>
ChemBridge

>  <clogP>
4.263000000000000e+000

>  <RB>
3

>  <tPSA>
2.985000000000000e+001

>  <Hacc>
2

>  <Hdon>
1

>  <LogSw>
-4.619000000000000e+000

>  <Group>
1

>  <Core>
305

$$$$
5330163
 OpenBabel03312015312D

 19 20  0  0  0  0  0  0  0  0999 V2000
    2.5042   -1.1500    0.0000 C   0  0  0  0  0  0  0  0  0  0  0  0
    1.8542   -1.5167    0.0000 C   0  0  0  0  0  0  0  0  0  0  0  0
    3.1542   -1.5167    0.0000 N   0  0  0  0  0  0  0  0  0  0  0  0
    3.8042   -1.1500    0.0000 C   0  0  0  0  0  0  0  0  0  0  0  0
    1.2042   -1.1500    0.0000 C   0  0  0  0  0  0  0  0  0  0  0  0
    4.4542   -1.5167    0.0000 C   0  0  0  0  0  0  0  0  0  0  0  0
    2.5042   -0.4000    0.0000 O   0  0  0  0  0  0  0  0  0  0  0  0
    3.8042   -0.4000    0.0000 C   0  0  0  0  0  0  0  0  0  0  0  0
    5.1042   -1.1500    0.0000 C   0  0  0  0  0  0  0  0  0  0  0  0
    4.4542   -0.0167    0.0000 C   0  0  0  0  0  0  0  0  0  0  0  0
    1.2042   -0.4000    0.0000 Br  0  0  0  0  0  0  0  0  0  0  0  0
    5.1042   -0.4000    0.0000 C   0  0  0  0  0  0  0  0  0  0  0  0
    1.8542   -2.2667    0.0000 C   0  0  0  0  0  0  0  0  0  0  0  0
    4.4542   -2.2667    0.0000 O   0  0  0  0  0  0  0  0  0  0  0  0
    0.5542   -1.5167    0.0000 C   0  0  0  0  0  0  0  0  0  0  0  0
    4.4542    0.7208    0.0000 C   0  0  0  0  0  0  0  0  0  0  0  0
    5.1042   -2.6500    0.0000 C   0  0  0  0  0  0  0  0  0  0  0  0
    1.2042   -2.6500    0.0000 C   0  0  0  0  0  0  0  0  0  0  0  0
    0.5542   -2.2667    0.0000 C   0  0  0  0  0  0  0  0  0  0  0  0
  2  1  1  0  0  0  0
  3  1  1  0  0  0  0
  4  3  1  0  0  0  0
  5  2  1  0  0  0  0
  6  4  2  0  0  0  0
  7  1  2  0  0  0  0
  8  4  1  0  0  0  0
  9  6  1  0  0  0  0
  9 12  2  0  0  0  0
 10  8  2  0  0  0  0
 11  5  1  0  0  0  0
 12 10  1  0  0  0  0
 13  2  2  0  0  0  0
 14  6  1  0  0  0  0
 15  5  2  0  0  0  0
 15 19  1  0  0  0  0
 16 10  1  0  0  0  0
 17 14  1  0  0  0  0
 18 13  1  0  0  0  0
 19 18  2  0  0  0  0
M  END
>  <ID>
5330163

>  <Supplier>
ChemBridge

>  <clogP>
2.670000000000000e+000

>  <RB>
2

>  <tPSA>
3.833000000000000e+001

>  <Hacc>
2

>  <Hdon>
1

>  <LogSw>
-3.815000000000000e+000

>  <Group>
2

>  <Core>
511

$$$$
9065097
 OpenBabel03312015312D

 27 29  0  0  0  0  0  0  0  0999 V2000
    3.1292    2.6083    0.0000 N   0  0  0  0  0  0  0  0  0  0  0  0
    6.4125    2.2958    0.0000 C   0  0  0  0  0  0  0  0  0  0  0  0
    5.7625    2.6708    0.0000 C   0  0  0  0  0  0  0  0  0  0  0  0
    2.6250    2.0458    0.0000 C   0  0  0  0  0  0  0  0  0  0  0  0
    3.8125    2.2958    0.0000 C   0  0  0  0  0  0  0  0  0  0  0  0
    3.0000    1.3958    0.0000 N   0  0  0  0  0  0  0  0  0  0  0  0
    5.1125    2.2958    0.0000 N   0  0  0  0  0  0  0  0  0  0  0  0
    3.7292    1.5500    0.0000 O   0  0  0  0  0  0  0  0  0  0  0  0
    4.4625    2.6708    0.0000 C   0  0  0  0  0  0  0  0  0  0  0  0
    6.4125    1.5458    0.0000 C   0  0  0  0  0  0  0  0  0  0  0  0
    7.0625    2.6708    0.0000 C   0  0  0  0  0  0  0  0  0  0  0  0
    5.7625    3.4208    0.0000 O   0  0  0  0  0  0  0  0  0  0  0  0
    1.8792    2.1250    0.0000 C   0  0  0  0  0  0  0  0  0  0  0  0
    7.0625    1.1708    0.0000 C   0  0  0  0  0  0  0  0  0  0  0  0
    4.4625    1.1708    0.0000 C   0  0  0  0  0  0  0  0  0  0  0  0
    4.4625    0.4208    0.0000 C   0  0  0  0  0  0  0  0  0  0  0  0
    7.7042    2.2958    0.0000 C   0  0  0  0  0  0  0  0  0  0  0  0
    5.1125    1.5458    0.0000 C   0  0  0  0  0  0  0  0  0  0  0  0
    7.7042    1.5458    0.0000 C   0  0  0  0  0  0  0  0  0  0  0  0
    8.3542    2.6708    0.0000 Cl  0  0  0  0  0  0  0  0  0  0  0  0
    5.7625    1.1708    0.0000 O   0  0  0  0  0  0  0  0  0  0  0  0
    1.5750    2.8083    0.0000 C   0  0  0  0  0  0  0  0  0  0  0  0
    1.4375    1.5208    0.0000 C   0  0  0  0  0  0  0  0  0  0  0  0
    5.7625    0.4208    0.0000 C   0  0  0  0  0  0  0  0  0  0  0  0
    0.6917    1.5958    0.0000 C   0  0  0  0  0  0  0  0  0  0  0  0
    0.8292    2.8958    0.0000 C   0  0  0  0  0  0  0  0  0  0  0  0
    0.3875    2.2833    0.0000 C   0  0  0  0  0  0  0  0  0  0  0  0
  2  3  1  0  0  0  0
  3  7  1  0  0  0  0
  4  1  1  0  0  0  0
  5  1  2  0  0  0  0
  6  4  2  0  0  0  0
  7  9  1  0  0  0  0
  8  5  1  0  0  0  0
  8  6  1  0  0  0  0
  9  5  1  0  0  0  0
 10  2  1  0  0  0  0
 11  2  2  0  0  0  0
 12  3  2  0  0  0  0
 13  4  1  0  0  0  0
 14 10  2  0  0  0  0
 15 18  1  0  0  0  0
 16 15  2  0  0  0  0
 17 11  1  0  0  0  0
 18  7  1  0  0  0  0
 19 17  2  0  0  0  0
 19 14  1  0  0  0  0
 20 17  1  0  0  0  0
 21 10  1  0  0  0  0
 22 13  2  0  0  0  0
 23 13  1  0  0  0  0
 24 21  1  0  0  0  0
 25 23  2  0  0  0  0
 26 22  1  0  0  0  0
 26 27  2  0  0  0  0
 27 25  1  0  0  0  0
M  END
>  <ID>
9065097

>  <Supplier>
ChemBridge

>  <clogP>
3.994000000000000e+000

>  <RB>
6

>  <tPSA>
6.845999999999998e+001

>  <Hacc>
5

>  <Hdon>
0

>  <LogSw>
-4.988000000000000e+000

>  <Group>
2

>  <Core>
204

$$$$
7944418
 OpenBabel03312015312D

 24 25  0  0  0  0  0  0  0  0999 V2000
    6.1542    2.3000    0.0000 C   0  0  0  0  0  0  0  0  0  0  0  0
    7.4542    1.5500    0.0000 C   0  0  0  0  0  0  0  0  0  0  0  0
   11.3542    1.5500    0.0000 N   0  0  0  0  0  0  0  0  0  0  0  0
   12.0375    1.2458    0.0000 C   0  0  0  0  0  0  0  0  0  0  0  0
    6.8042    2.6750    0.0000 C   0  0  0  0  0  0  0  0  0  0  0  0
    6.1542    1.5500    0.0000 C   0  0  0  0  0  0  0  0  0  0  0  0
    8.1042    1.1750    0.0000 C   0  0  0  0  0  0  0  0  0  0  0  0
    6.8042    1.1750    0.0000 C   0  0  0  0  0  0  0  0  0  0  0  0
    7.4542    2.3000    0.0000 C   0  0  0  0  0  0  0  0  0  0  0  0
   12.1917    0.5083    0.0000 O   0  0  0  0  0  0  0  0  0  0  0  0
    8.1042    0.4250    0.0000 O   0  0  0  0  0  0  0  0  0  0  0  0
    8.7542    1.5500    0.0000 N   0  0  0  0  0  0  0  0  0  0  0  0
    5.5042    2.6750    0.0000 O   0  0  0  0  0  0  0  0  0  0  0  0
    6.8042    3.4250    0.0000 O   0  0  0  0  0  0  0  0  0  0  0  0
    5.5042    1.1750    0.0000 O   0  0  0  0  0  0  0  0  0  0  0  0
   10.7042    1.1750    0.0000 C   0  0  0  0  0  0  0  0  0  0  0  0
   11.4292    2.2958    0.0000 C   0  0  0  0  0  0  0  0  0  0  0  0
   12.5417    1.8000    0.0000 C   0  0  0  0  0  0  0  0  0  0  0  0
   10.0542    1.5500    0.0000 C   0  0  0  0  0  0  0  0  0  0  0  0
   12.1667    2.4583    0.0000 C   0  0  0  0  0  0  0  0  0  0  0  0
    9.4042    1.1750    0.0000 C   0  0  0  0  0  0  0  0  0  0  0  0
    4.8542    2.3000    0.0000 C   0  0  0  0  0  0  0  0  0  0  0  0
    7.4542    3.8000    0.0000 C   0  0  0  0  0  0  0  0  0  0  0  0
    5.5042    0.4250    0.0000 C   0  0  0  0  0  0  0  0  0  0  0  0
  2  8  2  0  0  0  0
  2  9  1  0  0  0  0
  3 16  1  0  0  0  0
  4  3  1  0  0  0  0
  5  1  1  0  0  0  0
  6  1  2  0  0  0  0
  7  2  1  0  0  0  0
  8  6  1  0  0  0  0
  9  5  2  0  0  0  0
 10  4  2  0  0  0  0
 11  7  2  0  0  0  0
 12  7  1  0  0  0  0
 13  1  1  0  0  0  0
 14  5  1  0  0  0  0
 15  6  1  0  0  0  0
 16 19  1  0  0  0  0
 17  3  1  0  0  0  0
 18  4  1  0  0  0  0
 18 20  1  0  0  0  0
 19 21  1  0  0  0  0
 20 17  1  0  0  0  0
 21 12  1  0  0  0  0
 22 13  1  0  0  0  0
 23 14  1  0  0  0  0
 24 15  1  0  0  0  0
M  END
>  <ID>
7944418

>  <Supplier>
ChemBridge

>  <clogP>
4.850000000000000e-001

>  <RB>
5

>  <tPSA>
7.709999999999999e+001

>  <Hacc>
5

>  <Hdon>
1

>  <LogSw>
-2.067000000000000e+000

>  <Group>
2

$$$$
7944419
 OpenBabel03312015312D

 22 25  0  0  0  0  0  0  0  0999 V2000
    4.1167    3.3333    0.0000 N   0  0  0  0  0  0  0  0  0  0  0  0
    3.3667    3.3333    0.0000 C   0  0  0  0  0  0  0  0  0  0  0  0
    4.4917    2.6750    0.0000 C   0  0  0  0  0  0  0  0  0  0  0  0
    2.9917    2.6750    0.0000 C   0  0  0  0  0  0  0  0  0  0  0  0
    5.2417    2.6750    0.0000 C   0  0  0  0  0  0  0  0  0  0  0  0
    1.8667    2.0250    0.0000 C   0  0  0  0  0  0  0  0  0  0  0  0
    2.2417    2.6750    0.0000 C   0  0  0  0  0  0  0  0  0  0  0  0
    4.1167    2.0250    0.0000 C   0  0  0  0  0  0  0  0  0  0  0  0
    2.2417    1.3750    0.0000 C   0  0  0  0  0  0  0  0  0  0  0  0
    1.1292    1.8708    0.0000 O   0  0  0  0  0  0  0  0  0  0  0  0
    2.9917    3.9833    0.0000 O   0  0  0  0  0  0  0  0  0  0  0  0
    1.7417    0.8208    0.0000 O   0  0  0  0  0  0  0  0  0  0  0  0
    1.0542    1.1208    0.0000 C   0  0  0  0  0  0  0  0  0  0  0  0
    5.6167    2.0250    0.0000 C   0  0  0  0  0  0  0  0  0  0  0  0
    3.3667    2.0250    0.0000 C   0  0  0  0  0  0  0  0  0  0  0  0
    2.9917    1.3750    0.0000 C   0  0  0  0  0  0  0  0  0  0  0  0
    4.4917    3.9833    0.0000 C   0  0  0  0  0  0  0  0  0  0  0  0
    4.4917    1.3750    0.0000 C   0  0  0  0  0  0  0  0  0  0  0  0
    5.2417    1.3750    0.0000 C   0  0  0  0  0  0  0  0  0  0  0  0
    5.6167    3.3333    0.0000 C   0  0  0  0  0  0  0  0  0  0  0  0
    5.2417    3.9833    0.0000 C   0  0  0  0  0  0  0  0  0  0  0  0
    5.6167    0.7250    0.0000 C   0  0  0  0  0  0  0  0  0  0  0  0
  2  1  1  0  0  0  0
  3  1  1  0  0  0  0
  4  2  1  0  0  0  0
  5  3  2  0  0  0  0
  6  7  2  0  0  0  0
  6  9  1  0  0  0  0
  7  4  1  0  0  0  0
  8  3  1  0  0  0  0
  9 16  2  0  0  0  0
 10  6  1  0  0  0  0
 11  2  2  0  0  0  0
 12  9  1  0  0  0  0
 13 10  1  0  0  0  0
 13 12  1  0  0  0  0
 14  5  1  0  0  0  0
 14 19  2  0  0  0  0
 15  4  2  0  0  0  0
 16 15  1  0  0  0  0
 17  1  1  0  0  0  0
 18  8  2  0  0  0  0
 19 18  1  0  0  0  0
 20 21  1  0  0  0  0
 20  5  1  0  0  0  0
 21 17  1  0  0  0  0
 22 19  1  0  0  0  0
M  END
>  <ID>
7944419

>  <Supplier>
ChemBridge

>  <clogP>
3.344000000000000e+000

>  <RB>
1

>  <tPSA>
3.877000000000000e+001

>  <Hacc>
3

>  <Hdon>
0

>  <LogSw>
-4.210000000000000e+000

>  <Group>
3

$$$$
7581467
 OpenBabel03312015312D

 33 36  0  0  0  0  0  0  0  0999 V2000
   -2.6333    1.0500    0.0000 C   0  0  0  0  0  0  0  0  0  0  0  0
   -2.6333    0.3958    0.0000 C   0  0  0  0  0  0  0  0  0  0  0  0
   -3.1958    0.0625    0.0000 N   0  0  0  0  0  0  0  0  0  0  0  0
   -3.1958    1.3833    0.0000 C   0  0  0  0  0  0  0  0  0  0  0  0
   -3.7500    0.3958    0.0000 C   0  0  0  0  0  0  0  0  0  0  0  0
   -3.7500    1.0500    0.0000 C   0  0  0  0  0  0  0  0  0  0  0  0
   -1.4500   -0.9292    0.0000 C   0  0  3  0  0  0  0  0  0  0  0  0
   -0.8958   -0.6000    0.0000 C   0  0  3  0  0  0  0  0  0  0  0  0
   -0.8958    0.0625    0.0000 S   0  0  3  0  0  0  0  0  0  0  0  0
   -2.0500    1.4125    0.0000 C   0  0  0  0  0  0  0  0  0  0  0  0
   -1.4958    1.7458    0.0000 N   0  0  0  0  0  0  0  0  0  0  0  0
   -2.0333    0.0625    0.0000 S   0  0  0  0  0  0  0  0  0  0  0  0
   -4.3333    0.0625    0.0000 C   0  0  0  0  0  0  0  0  0  0  0  0
   -2.0333   -0.6000    0.0000 C   0  0  0  0  0  0  0  0  0  0  0  0
   -3.2125    2.0458    0.0000 C   0  0  0  0  0  0  0  0  0  0  0  0
   -1.4208    0.4458    0.0000 O   0  0  0  0  0  0  0  0  0  0  0  0
   -4.3333   -0.6000    0.0000 C   0  0  0  0  0  0  0  0  0  0  0  0
   -4.8958    0.3958    0.0000 C   0  0  0  0  0  0  0  0  0  0  0  0
   -2.0708   -1.3500    0.0000 O   0  0  0  0  0  0  0  0  0  0  0  0
   -4.8958   -0.9292    0.0000 C   0  0  0  0  0  0  0  0  0  0  0  0
   -5.4583    0.0625    0.0000 C   0  0  0  0  0  0  0  0  0  0  0  0
   -5.4583   -0.6000    0.0000 C   0  0  0  0  0  0  0  0  0  0  0  0
   -1.4500   -1.5875    0.0000 C   0  0  0  0  0  0  0  0  0  0  0  0
   -0.3333    0.3958    0.0000 C   0  0  0  0  0  0  0  0  0  0  0  0
   -0.3333   -0.9292    0.0000 C   0  0  0  0  0  0  0  0  0  0  0  0
   -2.6333    2.3708    0.0000 C   0  0  0  0  0  0  0  0  0  0  0  0
   -3.7708    2.3708    0.0000 C   0  0  0  0  0  0  0  0  0  0  0  0
   -5.9833   -0.8875    0.0000 C   0  0  0  0  0  0  0  0  0  0  0  0
   -0.8708   -1.9167    0.0000 C   0  0  0  0  0  0  0  0  0  0  0  0
   -0.3125   -1.5875    0.0000 C   0  0  0  0  0  0  0  0  0  0  0  0
   -3.7500    3.0333    0.0000 C   0  0  0  0  0  0  0  0  0  0  0  0
   -2.6333    3.0333    0.0000 C   0  0  0  0  0  0  0  0  0  0  0  0
   -3.2125    3.3625    0.0000 C   0  0  0  0  0  0  0  0  0  0  0  0
  2  1  2  0  0  0  0
  3  2  1  0  0  0  0
  4  1  1  0  0  0  0
  5  6  1  0  0  0  0
  5  3  2  0  0  0  0
  6  4  2  0  0  0  0
  7 14  1  0  0  0  0
  8  7  1  0  0  0  0
  9  8  1  0  0  0  0
 10  1  1  0  0  0  0
 11 10  3  0  0  0  0
 12  2  1  0  0  0  0
 13  5  1  0  0  0  0
 14 12  1  0  0  0  0
 15  4  1  0  0  0  0
 16  9  2  0  0  0  0
 17 13  2  0  0  0  0
 18 13  1  0  0  0  0
 19  7  1  0  0  0  0
 20 17  1  0  0  0  0
 21 18  2  0  0  0  0
 22 21  1  0  0  0  0
 22 20  2  0  0  0  0
 23  7  1  0  0  0  0
 24  9  1  0  0  0  0
 25  8  1  0  0  0  0
 25 30  1  0  0  0  0
 26 15  1  0  0  0  0
 27 15  2  0  0  0  0
 28 22  1  0  0  0  0
 29 23  1  0  0  0  0
 30 29  1  0  0  0  0
 31 27  1  0  0  0  0
 32 26  2  0  0  0  0
 32 33  1  0  0  0  0
 33 31  2  0  0  0  0
M  END
>  <ID>
7581467

>  <Supplier>
ChemBridge

>  <clogP>
5.400000000000000e+000

>  <RB>
5

>  <tPSA>
7.397999999999998e+001

>  <Hacc>
4

>  <Hdon>
1

>  <LogSw>
-6.878000000000000e+000

>  <Group>
2

>  <Core>
042

$$$$
7996905
 OpenBabel03312015312D

 25 27  0  0  0  0  0  0  0  0999 V2000
    5.9542    1.6750    0.0000 C   0  0  0  0  0  0  0  0  0  0  0  0
    6.3292    2.3333    0.0000 C   0  0  0  0  0  0  0  0  0  0  0  0
    6.3292    1.0250    0.0000 C   0  0  0  0  0  0  0  0  0  0  0  0
    7.0792    2.3333    0.0000 N   0  0  0  0  0  0  0  0  0  0  0  0
    5.9542    2.9833    0.0000 C   0  0  0  0  0  0  0  0  0  0  0  0
    5.2042    1.6750    0.0000 C   0  0  0  0  0  0  0  0  0  0  0  0
    5.9542    0.3750    0.0000 O   0  0  0  0  0  0  0  0  0  0  0  0
    4.0792    2.3333    0.0000 N   0  0  0  0  0  0  0  0  0  0  0  0
    8.5792    2.3333    0.0000 O   0  0  0  0  0  0  0  0  0  0  0  0
    4.8292    2.3333    0.0000 C   0  0  0  0  0  0  0  0  0  0  0  0
    7.0792    1.0250    0.0000 O   0  0  0  0  0  0  0  0  0  0  0  0
    5.2042    2.9833    0.0000 C   0  0  0  0  0  0  0  0  0  0  0  0
    3.7042    1.6750    0.0000 C   0  0  0  0  0  0  0  0  0  0  0  0
    2.9542    1.6750    0.0000 C   0  0  0  0  0  0  0  0  0  0  0  0
    1.4542    1.6750    0.0000 C   0  0  0  0  0  0  0  0  0  0  0  0
    2.5792    1.0250    0.0000 C   0  0  0  0  0  0  0  0  0  0  0  0
    2.5792    2.3333    0.0000 C   0  0  0  0  0  0  0  0  0  0  0  0
    1.8292    1.0250    0.0000 C   0  0  0  0  0  0  0  0  0  0  0  0
    1.8292    2.3333    0.0000 C   0  0  0  0  0  0  0  0  0  0  0  0
    7.4542    2.9833    0.0000 C   0  0  0  0  0  0  0  0  0  0  0  0
    7.4542    1.6750    0.0000 C   0  0  0  0  0  0  0  0  0  0  0  0
    8.2042    1.6750    0.0000 C   0  0  0  0  0  0  0  0  0  0  0  0
    8.2042    2.9833    0.0000 C   0  0  0  0  0  0  0  0  0  0  0  0
    0.7042    1.6750    0.0000 C   0  0  0  0  0  0  0  0  0  0  0  0
    0.3292    2.3333    0.0000 C   0  0  0  0  0  0  0  0  0  0  0  0
  2  1  1  0  0  0  0
  3  1  1  0  0  0  0
  4  2  1  0  0  0  0
  5  2  2  0  0  0  0
  6  1  2  0  0  0  0
  7  3  2  0  0  0  0
  8 10  1  0  0  0  0
  9 22  1  0  0  0  0
  9 23  1  0  0  0  0
 10  6  1  0  0  0  0
 11  3  1  0  0  0  0
 12 10  2  0  0  0  0
 12  5  1  0  0  0  0
 13  8  1  0  0  0  0
 14 13  1  0  0  0  0
 15 19  1  0  0  0  0
 15 18  2  0  0  0  0
 16 14  2  0  0  0  0
 17 14  1  0  0  0  0
 18 16  1  0  0  0  0
 19 17  2  0  0  0  0
 20  4  1  0  0  0  0
 21  4  1  0  0  0  0
 22 21  1  0  0  0  0
 23 20  1  0  0  0  0
 24 15  1  0  0  0  0
 25 24  1  0  0  0  0
M  END
>  <ID>
7996905

>  <Supplier>
ChemBridge

>  <clogP>
4.080000000000000e+000

>  <RB>
5

>  <tPSA>
6.180000000000000e+001

>  <Hacc>
3

>  <Hdon>
2

>  <LogSw>
-5.166999999999998e+000

>  <Group>
2

>  <Core>
450

$$$$
7944415
 OpenBabel03312015312D

 14 15  0  0  0  0  0  0  0  0999 V2000
    2.3042    1.5000    0.0000 N   0  0  0  0  0  0  0  0  0  0  0  0
    2.9125    1.0625    0.0000 C   0  0  0  0  0  0  0  0  0  0  0  0
    3.5917    1.3708    0.0000 C   0  0  0  0  0  0  0  0  0  0  0  0
    2.3042    2.2500    0.0000 N   0  0  0  0  0  0  0  0  0  0  0  0
    4.2417    0.9958    0.0000 S   0  0  0  0  0  0  0  0  0  0  0  0
    1.5917    1.2708    0.0000 C   0  0  0  0  0  0  0  0  0  0  0  0
    4.8042    1.4958    0.0000 C   0  0  0  0  0  0  0  0  0  0  0  0
    3.7542    2.1000    0.0000 C   0  0  0  0  0  0  0  0  0  0  0  0
    1.1500    1.8750    0.0000 C   0  0  0  0  0  0  0  0  0  0  0  0
    4.5000    2.1833    0.0000 C   0  0  0  0  0  0  0  0  0  0  0  0
    1.5917    2.4833    0.0000 C   0  0  0  0  0  0  0  0  0  0  0  0
    2.8292    0.3208    0.0000 O   0  0  0  0  0  0  0  0  0  0  0  0
    5.5375    1.3375    0.0000 Cl  0  0  0  0  0  0  0  0  0  0  0  0
    0.4000    1.8750    0.0000 C   0  0  0  0  0  0  0  0  0  0  0  0
  2  1  1  0  0  0  0
  3  2  1  0  0  0  0
  4  1  1  0  0  0  0
  5  3  1  0  0  0  0
  6  1  1  0  0  0  0
  7  5  1  0  0  0  0
  8  3  2  0  0  0  0
  9  6  2  0  0  0  0
 10  8  1  0  0  0  0
 10  7  2  0  0  0  0
 11  4  2  0  0  0  0
 11  9  1  0  0  0  0
 12  2  2  0  0  0  0
 13  7  1  0  0  0  0
 14  9  1  0  0  0  0
M  END
>  <ID>
7944415

>  <Supplier>
ChemBridge

>  <clogP>
3.896000000000000e+000

>  <RB>
1

>  <tPSA>
3.489000000000000e+001

>  <Hacc>
2

>  <Hdon>
0

>  <LogSw>
-4.181000000000000e+000

>  <Group>
3

$$$$
6938537
 OpenBabel03312015312D

 32 36  0  0  0  0  0  0  0  0999 V2000
   -7.6292    0.2958    0.0000 N   0  0  0  0  0  0  0  0  0  0  0  0
   -4.5833   -0.9875    0.0000 C   0  0  0  0  0  0  0  0  0  0  0  0
   -6.5917   -1.5167    0.0000 C   0  0  0  0  0  0  0  0  0  0  0  0
   -6.2667    1.8500    0.0000 N   0  0  0  0  0  0  0  0  0  0  0  0
   11.1167   -0.7542    0.0000 N   0  0  0  0  0  0  0  0  0  0  0  0
    9.4875    0.4333    0.0000 C   0  0  0  0  0  0  0  0  0  0  0  0
   10.4792   -2.7500    0.0000 C   0  0  0  0  0  0  0  0  0  0  0  0
   -4.3458    0.9958    0.0000 C   0  0  0  0  0  0  0  0  0  0  0  0
    7.7292   -0.7292    0.0000 C   0  0  0  0  0  0  0  0  0  0  0  0
    8.3542   -2.7500    0.0000 C   0  0  0  0  0  0  0  0  0  0  0  0
    2.3167   -1.4167    0.0000 C   0  0  0  0  0  0  0  0  0  0  0  0
   -3.0208   -2.3875    0.0000 C   0  0  0  0  0  0  0  0  0  0  0  0
   -9.7167    0.2958    0.0000 C   0  0  0  0  0  0  0  0  0  0  0  0
    0.8292   -2.8167    0.0000 O   0  0  0  0  0  0  0  0  0  0  0  0
   -0.9625   -1.7875    0.0000 C   0  0  0  0  0  0  0  0  0  0  0  0
    5.7000   -0.2875    0.0000 C   0  0  0  0  0  0  0  0  0  0  0  0
  -10.7792   -1.5167    0.0000 C   0  0  0  0  0  0  0  0  0  0  0  0
    4.3375   -1.8500    0.0000 C   0  0  0  0  0  0  0  0  0  0  0  0
    1.4542    0.3958    0.0000 C   0  0  0  0  0  0  0  0  0  0  0  0
  -12.8667   -1.5167    0.0000 C   0  0  0  0  0  0  0  0  0  0  0  0
   -0.5625    0.2333    0.0000 C   0  0  0  0  0  0  0  0  0  0  0  0
    6.9667   -4.3042    0.0000 C   0  0  0  0  0  0  0  0  0  0  0  0
   -7.4292   -3.4500    0.0000 O   0  0  0  0  0  0  0  0  0  0  0  0
    9.5875    2.4833    0.0000 O   0  0  0  0  0  0  0  0  0  0  0  0
   11.7042   -4.3792    0.0000 O   0  0  0  0  0  0  0  0  0  0  0  0
    5.0042   -3.8792    0.0000 C   0  0  0  0  0  0  0  0  0  0  0  0
  -10.7792    2.0500    0.0000 C   0  0  0  0  0  0  0  0  0  0  0  0
  -13.9000    0.2333    0.0000 C   0  0  0  0  0  0  0  0  0  0  0  0
  -12.8667    2.0500    0.0000 C   0  0  0  0  0  0  0  0  0  0  0  0
  -13.9000   -3.3500    0.0000 Cl  0  0  0  0  0  0  0  0  0  0  0  0
   -2.4833    2.0500    0.0000 C   0  0  0  0  0  0  0  0  0  0  0  0
  -16.0000    0.2333    0.0000 C   0  0  0  0  0  0  0  0  0  0  0  0
  2  3  1  0  0  0  0
  3  1  1  0  0  0  0
  4  1  1  0  0  0  0
  5  6  1  0  0  0  0
  6  9  1  0  0  0  0
  7 10  1  0  0  0  0
  7  5  1  0  0  0  0
  8  4  2  0  0  0  0
  8  2  1  0  0  0  0
  9 16  1  0  0  0  0
  9 10  2  0  0  0  0
 10 22  1  0  0  0  0
 11 14  1  0  0  0  0
 12  2  2  0  0  0  0
 13  1  1  0  0  0  0
 14 15  1  0  0  0  0
 15 12  1  0  0  0  0
 16 18  2  0  0  0  0
 17 13  2  0  0  0  0
 18 11  1  0  0  0  0
 19 21  1  0  0  0  0
 19 11  2  0  0  0  0
 20 17  1  0  0  0  0
 21 15  2  0  0  0  0
 22 26  2  0  0  0  0
 23  3  2  0  0  0  0
 24  6  2  0  0  0  0
 25  7  2  0  0  0  0
 26 18  1  0  0  0  0
 27 13  1  0  0  0  0
 28 29  1  0  0  0  0
 28 20  2  0  0  0  0
 29 27  2  0  0  0  0
 30 20  1  0  0  0  0
 31  8  1  0  0  0  0
 32 28  1  0  0  0  0
M  END
>  <ID>
6938537

>  <Supplier>
ChemBridge

>  <clogP>
4.750000000000000e+000

>  <RB>
3

>  <tPSA>
9.198000000000000e+001

>  <Hacc>
5

>  <Hdon>
1

>  <LogSw>
-6.506000000000000e+000

>  <Group>
1

>  <Core>
046

$$$$
7944417
 OpenBabel03312015312D

 19 20  0  0  0  0  0  0  0  0999 V2000
    6.1167    1.9083    0.0000 C   0  0  0  0  0  0  0  0  0  0  0  0
    5.4667    1.5333    0.0000 C   0  0  0  0  0  0  0  0  0  0  0  0
    1.4042    2.8083    0.0000 N   0  0  0  0  0  0  0  0  0  0  0  0
    2.2167    1.9083    0.0000 N   0  0  0  0  0  0  0  0  0  0  0  0
    2.1417    2.6583    0.0000 C   0  0  0  0  0  0  0  0  0  0  0  0
    6.7667    1.5333    0.0000 C   0  0  0  0  0  0  0  0  0  0  0  0
    6.1167    2.6583    0.0000 C   0  0  0  0  0  0  0  0  0  0  0  0
    1.0292    2.1583    0.0000 C   0  0  0  0  0  0  0  0  0  0  0  0
    1.5375    1.6000    0.0000 C   0  0  0  0  0  0  0  0  0  0  0  0
    5.4667    0.7833    0.0000 O   0  0  0  0  0  0  0  0  0  0  0  0
    4.8167    1.9083    0.0000 N   0  0  0  0  0  0  0  0  0  0  0  0
    6.7667    0.7833    0.0000 F   0  0  0  0  0  0  0  0  0  0  0  0
    5.4667    3.0333    0.0000 F   0  0  0  0  0  0  0  0  0  0  0  0
    2.8667    1.5333    0.0000 C   0  0  0  0  0  0  0  0  0  0  0  0
    3.5167    1.9083    0.0000 C   0  0  0  0  0  0  0  0  0  0  0  0
    7.4167    2.6583    0.0000 C   0  0  0  0  0  0  0  0  0  0  0  0
    6.7667    3.0333    0.0000 C   0  0  0  0  0  0  0  0  0  0  0  0
    7.4167    1.9083    0.0000 C   0  0  0  0  0  0  0  0  0  0  0  0
    4.1667    1.5333    0.0000 C   0  0  0  0  0  0  0  0  0  0  0  0
  2  1  1  0  0  0  0
  3  5  2  0  0  0  0
  4 14  1  0  0  0  0
  5  4  1  0  0  0  0
  6  1  1  0  0  0  0
  7  1  2  0  0  0  0
  8  9  2  0  0  0  0
  8  3  1  0  0  0  0
  9  4  1  0  0  0  0
 10  2  2  0  0  0  0
 11  2  1  0  0  0  0
 12  6  1  0  0  0  0
 13  7  1  0  0  0  0
 14 15  1  0  0  0  0
 15 19  1  0  0  0  0
 16 17  2  0  0  0  0
 16 18  1  0  0  0  0
 17  7  1  0  0  0  0
 18  6  2  0  0  0  0
 19 11  1  0  0  0  0
M  END
>  <ID>
7944417

>  <Supplier>
ChemBridge

>  <clogP>
8.560000000000002e-001

>  <RB>
5

>  <tPSA>
4.692000000000000e+001

>  <Hacc>
2

>  <Hdon>
1

>  <LogSw>
-1.866000000000000e+000

>  <Group>
3

$$$$
7944410
 OpenBabel03312015312D

 21 22  0  0  0  0  0  0  0  0999 V2000
    7.1625    0.5083    0.0000 S   0  0  0  0  0  0  0  0  0  0  0  0
    6.5125    0.8833    0.0000 N   0  0  0  0  0  0  0  0  0  0  0  0
    4.5625    2.0083    0.0000 C   0  0  0  0  0  0  0  0  0  0  0  0
    5.2125    1.6333    0.0000 N   0  0  0  0  0  0  0  0  0  0  0  0
    3.9125    1.6333    0.0000 C   0  0  0  0  0  0  0  0  0  0  0  0
    5.8625    0.5083    0.0000 C   0  0  0  0  0  0  0  0  0  0  0  0
    6.5125    1.6333    0.0000 C   0  0  0  0  0  0  0  0  0  0  0  0
    7.6917    1.0375    0.0000 O   0  0  0  0  0  0  0  0  0  0  0  0
    6.7292   -0.1042    0.0000 O   0  0  0  0  0  0  0  0  0  0  0  0
    5.8625    2.0083    0.0000 C   0  0  0  0  0  0  0  0  0  0  0  0
    5.2125    0.8833    0.0000 C   0  0  0  0  0  0  0  0  0  0  0  0
    4.5625    2.7583    0.0000 O   0  0  0  0  0  0  0  0  0  0  0  0
    3.2625    2.0083    0.0000 C   0  0  0  0  0  0  0  0  0  0  0  0
    7.7375    0.0250    0.0000 C   0  0  0  0  0  0  0  0  0  0  0  0
    2.6125    1.6333    0.0000 C   0  0  0  0  0  0  0  0  0  0  0  0
    3.9125    0.8833    0.0000 C   0  0  0  0  0  0  0  0  0  0  0  0
    1.9667    2.0083    0.0000 O   0  0  0  0  0  0  0  0  0  0  0  0
    3.2625    0.5083    0.0000 C   0  0  0  0  0  0  0  0  0  0  0  0
    2.6125    0.8833    0.0000 C   0  0  0  0  0  0  0  0  0  0  0  0
    1.3167    1.6333    0.0000 C   0  0  0  0  0  0  0  0  0  0  0  0
    0.6667    2.0083    0.0000 C   0  0  0  0  0  0  0  0  0  0  0  0
  2  1  1  0  0  0  0
  3  4  1  0  0  0  0
  4 10  1  0  0  0  0
  4 11  1  0  0  0  0
  5  3  1  0  0  0  0
  6  2  1  0  0  0  0
  7  2  1  0  0  0  0
  8  1  2  0  0  0  0
  9  1  2  0  0  0  0
 10  7  1  0  0  0  0
 11  6  1  0  0  0  0
 12  3  2  0  0  0  0
 13  5  1  0  0  0  0
 14  1  1  0  0  0  0
 15 13  2  0  0  0  0
 15 19  1  0  0  0  0
 16  5  2  0  0  0  0
 17 15  1  0  0  0  0
 18 16  1  0  0  0  0
 19 18  2  0  0  0  0
 20 17  1  0  0  0  0
 21 20  1  0  0  0  0
M  END
>  <ID>
7944410

>  <Supplier>
ChemBridge

>  <clogP>
1.522000000000000e+000

>  <RB>
1

>  <tPSA>
6.691999999999999e+001

>  <Hacc>
5

>  <Hdon>
0

>  <LogSw>
-2.778000000000000e+000

>  <Group>
3

>  <Core>
170

$$$$
5965442
 OpenBabel03312015312D

 18 20  0  0  0  0  0  0  0  0999 V2000
    4.1667    1.3458    0.0000 N   0  0  0  0  0  0  0  0  0  0  0  0
    2.8667    0.5958    0.0000 N   0  0  0  0  0  0  0  0  0  0  0  0
    4.1667    0.5958    0.0000 C   0  0  0  0  0  0  0  0  0  0  0  0
    3.5167    1.7208    0.0000 C   0  0  0  0  0  0  0  0  0  0  0  0
    4.8125    1.7208    0.0000 C   0  0  0  0  0  0  0  0  0  0  0  0
    2.2167    0.2208    0.0000 C   0  0  0  0  0  0  0  0  0  0  0  0
    3.5167    0.2208    0.0000 C   0  0  0  0  0  0  0  0  0  0  0  0
    2.8667    1.3458    0.0000 C   0  0  0  0  0  0  0  0  0  0  0  0
    1.5667    0.5958    0.0000 C   0  0  0  0  0  0  0  0  0  0  0  0
    5.5000    1.4125    0.0000 C   0  0  0  0  0  0  0  0  0  0  0  0
    4.8917    2.4625    0.0000 C   0  0  0  0  0  0  0  0  0  0  0  0
    1.5667    1.3458    0.0000 C   0  0  0  0  0  0  0  0  0  0  0  0
    0.9167    0.2208    0.0000 C   0  0  0  0  0  0  0  0  0  0  0  0
    5.6250    2.6208    0.0000 C   0  0  0  0  0  0  0  0  0  0  0  0
    6.0000    1.9708    0.0000 C   0  0  0  0  0  0  0  0  0  0  0  0
    0.2667    0.5958    0.0000 C   0  0  0  0  0  0  0  0  0  0  0  0
    0.9167    1.7208    0.0000 C   0  0  0  0  0  0  0  0  0  0  0  0
    0.2667    1.3458    0.0000 C   0  0  0  0  0  0  0  0  0  0  0  0
  2  8  1  0  0  0  0
  3  1  1  0  0  0  0
  4  1  1  0  0  0  0
  5  1  1  0  0  0  0
  6  2  1  0  0  0  0
  7  3  1  0  0  0  0
  7  2  1  0  0  0  0
  8  4  1  0  0  0  0
  9  6  1  0  0  0  0
 10  5  1  0  0  0  0
 11  5  1  0  0  0  0
 12  9  2  0  0  0  0
 13  9  1  0  0  0  0
 14 11  1  0  0  0  0
 14 15  1  0  0  0  0
 15 10  1  0  0  0  0
 16 13  2  0  0  0  0
 17 12  1  0  0  0  0
 17 18  2  0  0  0  0
 18 16  1  0  0  0  0
M  END
>  <ID>
5965442

>  <Supplier>
ChemBridge

>  <clogP>
1.160000000000000e+000

>  <RB>
3

>  <tPSA>
8.108000000000001e+001

>  <Hacc>
6

>  <Hdon>
2

>  <LogSw>
-9.660000000000000e-001

>  <Group>
3

>  <Core>
164

$$$$
7944413
 OpenBabel03312015312D

 30 33  0  0  0  0  0  0  0  0999 V2000
    3.6417    3.0958    0.0000 C   0  0  0  0  0  0  0  0  0  0  0  0
    4.3542    2.8625    0.0000 C   0  0  0  0  0  0  0  0  0  0  0  0
    4.8000    3.4708    0.0000 C   0  0  0  0  0  0  0  0  0  0  0  0
    3.6417    3.8458    0.0000 S   0  0  0  0  0  0  0  0  0  0  0  0
    4.3542    4.0667    0.0000 C   0  0  0  0  0  0  0  0  0  0  0  0
    3.0375    2.6583    0.0000 N   0  0  0  0  0  0  0  0  0  0  0  0
    2.3500    2.9583    0.0000 C   0  0  0  0  0  0  0  0  0  0  0  0
    4.5875    2.1500    0.0000 C   0  0  0  0  0  0  0  0  0  0  0  0
    1.7417    2.5208    0.0000 C   0  0  0  0  0  0  0  0  0  0  0  0
    5.3167    1.9958    0.0000 N   0  0  0  0  0  0  0  0  0  0  0  0
    1.0292    2.7500    0.0000 O   0  0  0  0  0  0  0  0  0  0  0  0
    5.5500    3.4708    0.0000 C   0  0  0  0  0  0  0  0  0  0  0  0
    2.2750    3.7083    0.0000 O   0  0  0  0  0  0  0  0  0  0  0  0
    1.7417    1.7708    0.0000 C   0  0  0  0  0  0  0  0  0  0  0  0
    4.0875    1.5958    0.0000 O   0  0  0  0  0  0  0  0  0  0  0  0
    0.5917    2.1458    0.0000 C   0  0  0  0  0  0  0  0  0  0  0  0
    7.2542    0.2583    0.0000 N   0  0  0  0  0  0  0  0  0  0  0  0
    1.0292    1.5375    0.0000 C   0  0  0  0  0  0  0  0  0  0  0  0
    6.2875    1.1250    0.0000 C   0  0  0  0  0  0  0  0  0  0  0  0
    5.5542    1.2833    0.0000 C   0  0  0  0  0  0  0  0  0  0  0  0
    4.5875    4.7792    0.0000 C   0  0  0  0  0  0  0  0  0  0  0  0
    6.5167    0.4125    0.0000 C   0  0  0  0  0  0  0  0  0  0  0  0
    7.7542    0.8125    0.0000 C   0  0  0  0  0  0  0  0  0  0  0  0
    5.9250    2.8208    0.0000 C   0  0  0  0  0  0  0  0  0  0  0  0
    5.9250    4.1167    0.0000 C   0  0  0  0  0  0  0  0  0  0  0  0
    6.7917    1.6833    0.0000 C   0  0  0  0  0  0  0  0  0  0  0  0
    7.5250    1.5250    0.0000 C   0  0  0  0  0  0  0  0  0  0  0  0
    6.6750    4.1167    0.0000 C   0  0  0  0  0  0  0  0  0  0  0  0
    6.6750    2.8208    0.0000 C   0  0  0  0  0  0  0  0  0  0  0  0
    7.0500    3.4708    0.0000 C   0  0  0  0  0  0  0  0  0  0  0  0
  2  1  2  0  0  0  0
  3  2  1  0  0  0  0
  4  1  1  0  0  0  0
  5  4  1  0  0  0  0
  5  3  2  0  0  0  0
  6  1  1  0  0  0  0
  7  6  1  0  0  0  0
  8  2  1  0  0  0  0
  9  7  1  0  0  0  0
 10  8  1  0  0  0  0
 11  9  1  0  0  0  0
 12  3  1  0  0  0  0
 13  7  2  0  0  0  0
 14  9  2  0  0  0  0
 15  8  2  0  0  0  0
 16 11  1  0  0  0  0
 17 22  2  0  0  0  0
 18 14  1  0  0  0  0
 18 16  2  0  0  0  0
 19 20  1  0  0  0  0
 20 10  1  0  0  0  0
 21  5  1  0  0  0  0
 22 19  1  0  0  0  0
 23 27  2  0  0  0  0
 23 17  1  0  0  0  0
 24 12  1  0  0  0  0
 25 12  2  0  0  0  0
 26 19  2  0  0  0  0
 27 26  1  0  0  0  0
 28 25  1  0  0  0  0
 29 24  2  0  0  0  0
 29 30  1  0  0  0  0
 30 28  2  0  0  0  0
M  END
>  <ID>
7944413

>  <Supplier>
ChemBridge

>  <clogP>
3.106000000000000e+000

>  <RB>
6

>  <tPSA>
8.423000000000000e+001

>  <Hacc>
4

>  <Hdon>
2

>  <LogSw>
-3.596000000000000e+000

>  <Group>
3

>  <Core>
097

$$$$
7936583
 OpenBabel03312015312D

 29 31  0  0  0  0  0  0  0  0999 V2000
    4.3417    1.0500    0.0000 C   0  0  0  0  0  0  0  0  0  0  0  0
    4.0375    1.7333    0.0000 C   0  0  0  0  0  0  0  0  0  0  0  0
    3.2917    1.6583    0.0000 N   0  0  0  0  0  0  0  0  0  0  0  0
    5.0750    0.8958    0.0000 C   0  0  0  0  0  0  0  0  0  0  0  0
    3.1375    0.9208    0.0000 N   0  0  0  0  0  0  0  0  0  0  0  0
    3.7875    0.5458    0.0000 C   0  0  0  0  0  0  0  0  0  0  0  0
    5.3042    0.1833    0.0000 O   0  0  0  0  0  0  0  0  0  0  0  0
    4.4125    2.3833    0.0000 C   0  0  0  0  0  0  0  0  0  0  0  0
    1.0042   -0.7375    0.0000 N   0  0  0  0  0  0  0  0  0  0  0  0
    6.0417    0.0250    0.0000 C   0  0  0  0  0  0  0  0  0  0  0  0
    6.2750   -0.6875    0.0000 C   0  0  0  0  0  0  0  0  0  0  0  0
    1.6875   -0.4292    0.0000 C   0  0  0  0  0  0  0  0  0  0  0  0
    5.5792    1.4500    0.0000 O   0  0  0  0  0  0  0  0  0  0  0  0
    5.1625    2.3833    0.0000 C   0  0  0  0  0  0  0  0  0  0  0  0
    7.0042   -0.8417    0.0000 C   0  0  0  0  0  0  0  0  0  0  0  0
    6.5417    0.5833    0.0000 C   0  0  0  0  0  0  0  0  0  0  0  0
    8.7417    0.1125    0.0000 O   0  0  0  0  0  0  0  0  0  0  0  0
    7.5042   -0.2875    0.0000 C   0  0  0  0  0  0  0  0  0  0  0  0
    8.2417   -0.4417    0.0000 C   0  0  0  0  0  0  0  0  0  0  0  0
    2.3667   -0.1292    0.0000 C   0  0  0  0  0  0  0  0  0  0  0  0
    5.5375    3.0333    0.0000 C   0  0  0  0  0  0  0  0  0  0  0  0
    2.4417    0.6208    0.0000 C   0  0  0  0  0  0  0  0  0  0  0  0
    7.2792    0.4250    0.0000 C   0  0  0  0  0  0  0  0  0  0  0  0
    5.7667   -1.2417    0.0000 O   0  0  0  0  0  0  0  0  0  0  0  0
    6.2875    3.0333    0.0000 Br  0  0  0  0  0  0  0  0  0  0  0  0
    4.0375    3.0333    0.0000 C   0  0  0  0  0  0  0  0  0  0  0  0
    4.4125    3.6833    0.0000 C   0  0  0  0  0  0  0  0  0  0  0  0
    5.1625    3.6833    0.0000 C   0  0  0  0  0  0  0  0  0  0  0  0
    6.0042   -1.9542    0.0000 C   0  0  0  0  0  0  0  0  0  0  0  0
  2  1  1  0  0  0  0
  3  2  2  0  0  0  0
  4  1  1  0  0  0  0
  5  6  1  0  0  0  0
  5  3  1  0  0  0  0
  6  1  2  0  0  0  0
  7  4  1  0  0  0  0
  8  2  1  0  0  0  0
  9 12  3  0  0  0  0
 10  7  1  0  0  0  0
 11 10  1  0  0  0  0
 12 20  1  0  0  0  0
 13  4  2  0  0  0  0
 14  8  2  0  0  0  0
 15 11  2  0  0  0  0
 16 10  2  0  0  0  0
 17 19  2  0  0  0  0
 18 23  2  0  0  0  0
 18 15  1  0  0  0  0
 19 18  1  0  0  0  0
 20 22  1  0  0  0  0
 21 14  1  0  0  0  0
 22  5  1  0  0  0  0
 23 16  1  0  0  0  0
 24 11  1  0  0  0  0
 25 21  1  0  0  0  0
 26  8  1  0  0  0  0
 27 26  2  0  0  0  0
 28 27  1  0  0  0  0
 28 21  2  0  0  0  0
 29 24  1  0  0  0  0
M  END
>  <ID>
7936583

>  <Supplier>
ChemBridge

>  <clogP>
4.043000000000000e+000

>  <RB>
7

>  <tPSA>
9.421000000000001e+001

>  <Hacc>
6

>  <Hdon>
0

>  <LogSw>
-6.229000000000000e+000

>  <Group>
1

>  <Core>
327

$$$$
7936582
 OpenBabel03312015312D

 16 17  0  0  0  0  0  0  0  0999 V2000
   -1.5625   -2.8375    0.0000 C   0  0  3  0  0  0  0  0  0  0  0  0
   -2.3625   -2.4375    0.0000 C   0  0  3  0  0  0  0  0  0  0  0  0
    0.9500   -1.4500    0.0000 C   0  0  0  0  0  0  0  0  0  0  0  0
   -0.1208   -1.7375    0.0000 N   0  0  0  0  0  0  0  0  0  0  0  0
   -0.4125   -2.8042    0.0000 C   0  0  3  0  0  0  0  0  0  0  0  0
   -1.6500   -1.9667    0.0000 C   0  0  0  0  0  0  0  0  0  0  0  0
   -2.8333   -0.3500    0.0000 C   0  0  0  0  0  0  0  0  0  0  0  0
    1.7167   -2.2167    0.0000 O   0  0  0  0  0  0  0  0  0  0  0  0
   -2.3333   -1.2042    0.0000 C   0  0  3  0  0  0  0  0  0  0  0  0
   -3.2000   -2.7000    0.0000 C   0  0  0  0  0  0  0  0  0  0  0  0
    1.2375   -0.3792    0.0000 C   0  0  0  0  0  0  0  0  0  0  0  0
    2.2667   -0.0875    0.0000 N   0  0  0  0  0  0  0  0  0  0  0  0
   -3.1708   -1.9000    0.0000 C   0  0  0  0  0  0  0  0  0  0  0  0
    0.4542   -3.5667    0.0000 C   0  0  0  0  0  0  0  0  0  0  0  0
    2.6000    0.9500    0.0000 C   0  0  0  0  0  0  0  0  0  0  0  0
    3.0042   -0.8875    0.0000 C   0  0  0  0  0  0  0  0  0  0  0  0
  2  1  1  0  0  0  0
  3  4  1  0  0  0  0
  4  5  1  0  0  0  0
  5  1  1  0  0  0  0
  6  1  1  0  0  0  0
  7  2  1  0  0  0  0
  7  9  1  0  0  0  0
  8  3  2  0  0  0  0
  9  6  1  0  0  0  0
 10  2  1  0  0  0  0
 10 13  1  0  0  0  0
 11  3  1  0  0  0  0
 12 11  1  0  0  0  0
 13  9  1  0  0  0  0
 14  5  1  0  0  0  0
 15 12  1  0  0  0  0
 16 12  1  0  0  0  0
M  END
>  <ID>
7936582

>  <Supplier>
ChemBridge

>  <clogP>
1.030000000000000e+000

>  <RB>
3

>  <tPSA>
3.234000000000000e+001

>  <Hacc>
2

>  <Hdon>
1

>  <LogSw>
-1.717000000000000e+000

>  <Group>
2

$$$$
5720987
 OpenBabel03312015312D

 26 27  0  0  0  0  0  0  0  0999 V2000
    2.1875   -1.1375    0.0000 C   0  0  0  0  0  0  0  0  0  0  0  0
    7.9042    0.5000    0.0000 C   0  0  0  0  0  0  0  0  0  0  0  0
    1.4792   -0.7167    0.0000 C   0  0  0  0  0  0  0  0  0  0  0  0
    2.9042   -0.7167    0.0000 C   0  0  0  0  0  0  0  0  0  0  0  0
    4.3375   -0.7167    0.0000 N   0  0  0  0  0  0  0  0  0  0  0  0
    7.2000    0.0833    0.0000 C   0  0  0  0  0  0  0  0  0  0  0  0
    0.7667   -1.1375    0.0000 N   0  0  0  0  0  0  0  0  0  0  0  0
    3.6167   -1.1375    0.0000 N   0  0  0  0  0  0  0  0  0  0  0  0
    7.9042    1.3208    0.0000 O   0  0  0  0  0  0  0  0  0  0  0  0
   -1.3708   -2.3667    0.0000 N   0  0  0  0  0  0  0  0  0  0  0  0
    1.4792    0.0958    0.0000 O   0  0  0  0  0  0  0  0  0  0  0  0
    2.9042    0.0958    0.0000 O   0  0  0  0  0  0  0  0  0  0  0  0
    6.4875    0.5000    0.0000 C   0  0  0  0  0  0  0  0  0  0  0  0
    7.2000   -0.7292    0.0000 C   0  0  0  0  0  0  0  0  0  0  0  0
   -0.6500   -1.1375    0.0000 C   0  0  0  0  0  0  0  0  0  0  0  0
    5.0500   -1.1375    0.0000 C   0  0  0  0  0  0  0  0  0  0  0  0
    0.0500   -0.7167    0.0000 C   0  0  0  0  0  0  0  0  0  0  0  0
    5.7667   -0.7167    0.0000 C   0  0  0  0  0  0  0  0  0  0  0  0
    8.6167    0.0833    0.0000 O   0  0  0  0  0  0  0  0  0  0  0  0
    5.7542    0.0958    0.0000 C   0  0  0  0  0  0  0  0  0  0  0  0
    6.4792   -1.1375    0.0000 C   0  0  0  0  0  0  0  0  0  0  0  0
   -0.6500   -1.9542    0.0000 C   0  0  0  0  0  0  0  0  0  0  0  0
   -2.0833   -1.9542    0.0000 C   0  0  0  0  0  0  0  0  0  0  0  0
   -1.3708   -0.7167    0.0000 C   0  0  0  0  0  0  0  0  0  0  0  0
    9.3375    0.4958    0.0000 C   0  0  0  0  0  0  0  0  0  0  0  0
   -2.0833   -1.1375    0.0000 C   0  0  0  0  0  0  0  0  0  0  0  0
  2  6  1  0  0  0  0
  3  1  1  0  0  0  0
  4  1  1  0  0  0  0
  5  8  1  0  0  0  0
  6 14  2  0  0  0  0
  6 13  1  0  0  0  0
  7  3  1  0  0  0  0
  8  4  1  0  0  0  0
  9  2  2  0  0  0  0
 10 22  2  0  0  0  0
 10 23  1  0  0  0  0
 11  3  2  0  0  0  0
 12  4  2  0  0  0  0
 13 20  2  0  0  0  0
 14 21  1  0  0  0  0
 15 17  1  0  0  0  0
 16  5  2  0  0  0  0
 17  7  1  0  0  0  0
 18 16  1  0  0  0  0
 19  2  1  0  0  0  0
 20 18  1  0  0  0  0
 21 18  2  0  0  0  0
 22 15  1  0  0  0  0
 23 26  2  0  0  0  0
 24 15  2  0  0  0  0
 25 19  1  0  0  0  0
 26 24  1  0  0  0  0
M  END
>  <ID>
5720987

>  <Supplier>
ChemBridge

>  <clogP>
5.700000000000001e-001

>  <RB>
7

>  <tPSA>
1.097500000000000e+002

>  <Hacc>
6

>  <Hdon>
2

>  <LogSw>
-9.710000000000001e-001

>  <Group>
2

>  <Core>
216

$$$$
7936587
 OpenBabel03312015312D

 25 27  0  0  0  0  0  0  0  0999 V2000
    3.7917    1.3208    0.0000 N   0  0  0  0  0  0  0  0  0  0  0  0
    3.7917    2.0708    0.0000 C   0  0  0  0  0  0  0  0  0  0  0  0
    2.4917    1.3208    0.0000 C   0  0  0  0  0  0  0  0  0  0  0  0
    3.1417    0.9458    0.0000 C   0  0  0  0  0  0  0  0  0  0  0  0
    2.4917    2.0708    0.0000 C   0  0  0  0  0  0  0  0  0  0  0  0
    4.4417    2.4458    0.0000 N   0  0  0  0  0  0  0  0  0  0  0  0
    3.1417    2.4458    0.0000 N   0  0  0  0  0  0  0  0  0  0  0  0
    5.0917    2.0708    0.0000 C   0  0  0  0  0  0  0  0  0  0  0  0
    1.8417    0.9458    0.0000 C   0  0  0  0  0  0  0  0  0  0  0  0
    1.8417    2.4458    0.0000 C   0  0  0  0  0  0  0  0  0  0  0  0
    1.1917    1.3208    0.0000 C   0  0  0  0  0  0  0  0  0  0  0  0
    1.1917    2.0708    0.0000 C   0  0  0  0  0  0  0  0  0  0  0  0
    5.7417    2.4458    0.0000 C   0  0  0  0  0  0  0  0  0  0  0  0
    3.1417    0.1958    0.0000 O   0  0  0  0  0  0  0  0  0  0  0  0
    5.0917    1.3208    0.0000 O   0  0  0  0  0  0  0  0  0  0  0  0
    6.3917    2.0708    0.0000 C   0  0  0  0  0  0  0  0  0  0  0  0
    5.7417    3.1958    0.0000 C   0  0  0  0  0  0  0  0  0  0  0  0
    7.0417    3.1958    0.0000 C   0  0  0  0  0  0  0  0  0  0  0  0
    0.5417    0.9458    0.0000 O   0  0  0  0  0  0  0  0  0  0  0  0
    0.5417    2.4458    0.0000 O   0  0  0  0  0  0  0  0  0  0  0  0
    6.3917    3.5708    0.0000 C   0  0  0  0  0  0  0  0  0  0  0  0
    7.0417    2.4458    0.0000 C   0  0  0  0  0  0  0  0  0  0  0  0
    7.6917    3.5708    0.0000 F   0  0  0  0  0  0  0  0  0  0  0  0
    0.5417    0.1958    0.0000 C   0  0  0  0  0  0  0  0  0  0  0  0
    0.5417    3.1958    0.0000 C   0  0  0  0  0  0  0  0  0  0  0  0
  2  1  2  0  0  0  0
  3  4  1  0  0  0  0
  4  1  1  0  0  0  0
  5  3  1  0  0  0  0
  5  7  1  0  0  0  0
  6  2  1  0  0  0  0
  7  2  1  0  0  0  0
  8  6  1  0  0  0  0
  9  3  2  0  0  0  0
 10  5  2  0  0  0  0
 11  9  1  0  0  0  0
 12 11  2  0  0  0  0
 12 10  1  0  0  0  0
 13  8  1  0  0  0  0
 14  4  2  0  0  0  0
 15  8  2  0  0  0  0
 16 13  2  0  0  0  0
 17 13  1  0  0  0  0
 18 21  1  0  0  0  0
 19 11  1  0  0  0  0
 20 12  1  0  0  0  0
 21 17  2  0  0  0  0
 22 16  1  0  0  0  0
 22 18  2  0  0  0  0
 23 18  1  0  0  0  0
 24 19  1  0  0  0  0
 25 20  1  0  0  0  0
M  END
>  <ID>
7936587

>  <Supplier>
ChemBridge

>  <clogP>
1.276000000000000e+000

>  <RB>
2

>  <tPSA>
9.331000000000000e+001

>  <Hacc>
5

>  <Hdon>
2

>  <LogSw>
-2.793000000000000e+000

>  <Group>
3

$$$$
7936586
 OpenBabel03312015312D

 29 30  0  0  0  0  0  0  0  0999 V2000
    8.3667    3.4250    0.0000 S   0  0  0  0  0  0  0  0  0  0  0  0
    7.7167    3.0500    0.0000 N   0  0  0  0  0  0  0  0  0  0  0  0
    7.0667    3.4250    0.0000 C   0  0  0  0  0  0  0  0  0  0  0  0
    7.7167    2.3000    0.0000 C   0  0  0  0  0  0  0  0  0  0  0  0
    6.4250    3.0500    0.0000 C   0  0  0  0  0  0  0  0  0  0  0  0
    7.0667    1.9250    0.0000 C   0  0  0  0  0  0  0  0  0  0  0  0
    8.1792    4.1417    0.0000 O   0  0  0  0  0  0  0  0  0  0  0  0
    8.6875    2.7458    0.0000 O   0  0  0  0  0  0  0  0  0  0  0  0
    7.0667    1.1750    0.0000 C   0  0  0  0  0  0  0  0  0  0  0  0
    6.4250    0.8000    0.0000 C   0  0  0  0  0  0  0  0  0  0  0  0
    6.4250    2.3000    0.0000 O   0  0  0  0  0  0  0  0  0  0  0  0
    6.4250    0.0500    0.0000 O   0  0  0  0  0  0  0  0  0  0  0  0
    5.7750    3.4250    0.0000 N   0  0  0  0  0  0  0  0  0  0  0  0
    9.0750    3.6833    0.0000 C   0  0  0  0  0  0  0  0  0  0  0  0
    1.8750    3.4250    0.0000 C   0  0  0  0  0  0  0  0  0  0  0  0
    1.2250    3.0500    0.0000 C   0  0  0  0  0  0  0  0  0  0  0  0
    0.5792    3.4250    0.0000 Cl  0  0  0  0  0  0  0  0  0  0  0  0
    3.8250    3.0500    0.0000 S   0  0  0  0  0  0  0  0  0  0  0  0
    2.5250    3.0500    0.0000 C   0  0  0  0  0  0  0  0  0  0  0  0
    8.3667    1.9250    0.0000 C   0  0  0  0  0  0  0  0  0  0  0  0
    7.7167    0.8000    0.0000 C   0  0  0  0  0  0  0  0  0  0  0  0
    8.3667    1.1750    0.0000 C   0  0  0  0  0  0  0  0  0  0  0  0
    1.8750    1.9250    0.0000 C   0  0  0  0  0  0  0  0  0  0  0  0
    3.1750    3.4250    0.0000 C   0  0  0  0  0  0  0  0  0  0  0  0
    5.7750    1.1750    0.0000 C   0  0  0  0  0  0  0  0  0  0  0  0
    5.1250    3.0500    0.0000 C   0  0  0  0  0  0  0  0  0  0  0  0
    1.2250    2.3000    0.0000 C   0  0  0  0  0  0  0  0  0  0  0  0
    2.5250    2.3000    0.0000 C   0  0  0  0  0  0  0  0  0  0  0  0
    4.4750    3.4250    0.0000 C   0  0  0  0  0  0  0  0  0  0  0  0
  2  1  1  0  0  0  0
  3  2  1  0  0  0  0
  4  2  1  0  0  0  0
  5  3  1  0  0  0  0
  6  4  2  0  0  0  0
  7  1  2  0  0  0  0
  8  1  2  0  0  0  0
  9  6  1  0  0  0  0
  9 21  2  0  0  0  0
 10  9  1  0  0  0  0
 11  5  2  0  0  0  0
 12 10  2  0  0  0  0
 13  5  1  0  0  0  0
 14  1  1  0  0  0  0
 15 19  1  0  0  0  0
 16 15  2  0  0  0  0
 17 16  1  0  0  0  0
 18 29  1  0  0  0  0
 19 24  1  0  0  0  0
 20  4  1  0  0  0  0
 21 22  1  0  0  0  0
 22 20  2  0  0  0  0
 23 28  1  0  0  0  0
 24 18  1  0  0  0  0
 25 10  1  0  0  0  0
 26 13  1  0  0  0  0
 27 23  2  0  0  0  0
 27 16  1  0  0  0  0
 28 19  2  0  0  0  0
 29 26  1  0  0  0  0
M  END
>  <ID>
7936586

>  <Supplier>
ChemBridge

>  <clogP>
3.769000000000000e+000

>  <RB>
9

>  <tPSA>
8.355000000000010e+001

>  <Hacc>
4

>  <Hdon>
1

>  <LogSw>
-5.735000000000000e+000

>  <Group>
1

>  <Core>
084

$$$$
7936584
 OpenBabel03312015312D

 22 24  0  0  0  0  0  0  0  0999 V2000
    5.1125    3.0208    0.0000 C   0  0  0  0  0  0  0  0  0  0  0  0
    5.4875    2.3625    0.0000 C   0  0  3  0  0  0  0  0  0  0  0  0
    5.8625    3.0208    0.0000 C   0  0  0  0  0  0  0  0  0  0  0  0
    3.5417    1.2375    0.0000 C   0  0  0  0  0  0  0  0  0  0  0  0
    5.4875    1.6125    0.0000 C   0  0  0  0  0  0  0  0  0  0  0  0
    4.1917    1.6125    0.0000 N   0  0  0  0  0  0  0  0  0  0  0  0
    4.8417    1.2375    0.0000 C   0  0  0  0  0  0  0  0  0  0  0  0
    2.8917    1.6125    0.0000 N   0  0  0  0  0  0  0  0  0  0  0  0
    4.9792    3.7500    0.0000 Cl  0  0  0  0  0  0  0  0  0  0  0  0
    4.4042    2.7583    0.0000 Cl  0  0  0  0  0  0  0  0  0  0  0  0
    3.5417    0.4875    0.0000 O   0  0  0  0  0  0  0  0  0  0  0  0
    2.2417    1.2375    0.0000 C   0  0  0  0  0  0  0  0  0  0  0  0
    1.5917    1.6125    0.0000 C   0  0  0  0  0  0  0  0  0  0  0  0
    0.9417    1.2375    0.0000 C   0  0  0  0  0  0  0  0  0  0  0  0
    0.2917    1.6125    0.0000 Cl  0  0  0  0  0  0  0  0  0  0  0  0
    6.1375    1.2375    0.0000 C   0  0  0  0  0  0  0  0  0  0  0  0
    4.8417    0.4875    0.0000 C   0  0  0  0  0  0  0  0  0  0  0  0
    1.5917    0.1125    0.0000 C   0  0  0  0  0  0  0  0  0  0  0  0
    2.2417    0.4875    0.0000 C   0  0  0  0  0  0  0  0  0  0  0  0
    0.9417    0.4875    0.0000 C   0  0  0  0  0  0  0  0  0  0  0  0
    6.1375    0.4875    0.0000 C   0  0  0  0  0  0  0  0  0  0  0  0
    5.4875    0.1125    0.0000 C   0  0  0  0  0  0  0  0  0  0  0  0
  2  1  1  0  0  0  0
  3  1  1  0  0  0  0
  3  2  1  0  0  0  0
  4  6  1  0  0  0  0
  5  2  1  0  0  0  0
  6  7  1  0  0  0  0
  7  5  2  0  0  0  0
  8  4  1  0  0  0  0
  9  1  1  0  0  0  0
 10  1  1  0  0  0  0
 11  4  2  0  0  0  0
 12  8  1  0  0  0  0
 13 12  1  0  0  0  0
 14 13  2  0  0  0  0
 15 14  1  0  0  0  0
 16  5  1  0  0  0  0
 17  7  1  0  0  0  0
 17 22  2  0  0  0  0
 18 19  1  0  0  0  0
 19 12  2  0  0  0  0
 20 18  2  0  0  0  0
 20 14  1  0  0  0  0
 21 16  2  0  0  0  0
 22 21  1  0  0  0  0
M  END
>  <ID>
7936584

>  <Supplier>
ChemBridge

>  <clogP>
4.424000000000000e+000

>  <RB>
3

>  <tPSA>
4.113000000000000e+001

>  <Hacc>
1

>  <Hdon>
2

>  <LogSw>
-5.571000000000002e+000

>  <Group>
3

>  <Core>
514

$$$$
5427027
 OpenBabel03312015312D

 31 35  0  0  0  0  0  0  0  0999 V2000
   -0.5958    2.2125    0.0000 C   0  0  0  0  0  0  0  0  0  0  0  0
   -5.9333    2.8833    0.0000 C   0  0  0  0  0  0  0  0  0  0  0  0
   -3.2625    2.9125    0.0000 N   0  0  0  0  0  0  0  0  0  0  0  0
    0.0792    1.8500    0.0000 C   0  0  0  0  0  0  0  0  0  0  0  0
   -0.5958    2.9958    0.0000 C   0  0  0  0  0  0  0  0  0  0  0  0
   -1.9125    2.1333    0.0000 N   0  0  0  0  0  0  0  0  0  0  0  0
   -5.2833    3.2958    0.0000 C   0  0  0  0  0  0  0  0  0  0  0  0
    0.0792    3.3833    0.0000 C   0  0  0  0  0  0  0  0  0  0  0  0
    0.7500    2.2125    0.0000 C   0  0  0  0  0  0  0  0  0  0  0  0
   -3.9458    3.2958    0.0000 C   0  0  0  0  0  0  0  0  0  0  0  0
   -1.2333    1.7458    0.0000 C   0  0  0  0  0  0  0  0  0  0  0  0
    0.7500    2.9958    0.0000 C   0  0  0  0  0  0  0  0  0  0  0  0
   -4.6208    2.9125    0.0000 C   0  0  0  0  0  0  0  0  0  0  0  0
   -3.2625    2.1333    0.0000 C   0  0  0  0  0  0  0  0  0  0  0  0
   -2.5833    3.2958    0.0000 C   0  0  0  0  0  0  0  0  0  0  0  0
   -6.3375    3.5333    0.0000 F   0  0  0  0  0  0  0  0  0  0  0  0
   -6.5667    2.4833    0.0000 F   0  0  0  0  0  0  0  0  0  0  0  0
   -5.5333    2.2333    0.0000 F   0  0  0  0  0  0  0  0  0  0  0  0
   -1.9125    2.9125    0.0000 C   0  0  0  0  0  0  0  0  0  0  0  0
   -2.5833    1.7458    0.0000 C   0  0  0  0  0  0  0  0  0  0  0  0
   -5.2833    4.0875    0.0000 C   0  0  0  0  0  0  0  0  0  0  0  0
    0.0500    1.0833    0.0000 C   0  0  0  0  0  0  0  0  0  0  0  0
   -1.2708    3.3833    0.0000 C   0  0  0  0  0  0  0  0  0  0  0  0
   -3.9458    4.0875    0.0000 C   0  0  0  0  0  0  0  0  0  0  0  0
   -4.6208    4.4667    0.0000 C   0  0  0  0  0  0  0  0  0  0  0  0
    0.0792    4.1542    0.0000 C   0  0  0  0  0  0  0  0  0  0  0  0
    1.4042    1.8208    0.0000 C   0  0  0  0  0  0  0  0  0  0  0  0
   -1.2708    4.1500    0.0000 C   0  0  0  0  0  0  0  0  0  0  0  0
    0.7000    0.6708    0.0000 C   0  0  0  0  0  0  0  0  0  0  0  0
    1.3875    1.0458    0.0000 C   0  0  0  0  0  0  0  0  0  0  0  0
   -0.5958    4.5292    0.0000 C   0  0  0  0  0  0  0  0  0  0  0  0
  2  7  1  0  0  0  0
  3 14  1  0  0  0  0
  4  1  1  0  0  0  0
  5  1  2  0  0  0  0
  6 11  1  0  0  0  0
  7 13  2  0  0  0  0
  8  5  1  0  0  0  0
  9  4  2  0  0  0  0
 10  3  1  0  0  0  0
 11  1  1  0  0  0  0
 12  8  2  0  0  0  0
 12  9  1  0  0  0  0
 13 10  1  0  0  0  0
 14 20  1  0  0  0  0
 15 19  1  0  0  0  0
 15  3  1  0  0  0  0
 16  2  1  0  0  0  0
 17  2  1  0  0  0  0
 18  2  1  0  0  0  0
 19  6  1  0  0  0  0
 20  6  1  0  0  0  0
 21 25  2  0  0  0  0
 21  7  1  0  0  0  0
 22  4  1  0  0  0  0
 23  5  1  0  0  0  0
 24 10  2  0  0  0  0
 25 24  1  0  0  0  0
 26  8  1  0  0  0  0
 26 31  2  0  0  0  0
 27  9  1  0  0  0  0
 28 23  2  0  0  0  0
 29 22  2  0  0  0  0
 30 29  1  0  0  0  0
 30 27  2  0  0  0  0
 31 28  1  0  0  0  0
M  END
>  <ID>
5427027

>  <Supplier>
ChemBridge

>  <clogP>
6.840000000000000e+000

>  <RB>
3

>  <tPSA>
6.480000000000000e+000

>  <Hacc>
1

>  <Hdon>
0

>  <LogSw>
-8.208000000000000e+000

>  <Group>
1

>  <Core>
162

$$$$
7936589
 OpenBabel03312015312D

 25 27  0  0  0  0  0  0  0  0999 V2000
    7.7500    1.3458    0.0000 S   0  0  0  0  0  0  0  0  0  0  0  0
    8.2792    0.8125    0.0000 C   0  0  0  0  0  0  0  0  0  0  0  0
    7.1000    0.9708    0.0000 C   0  0  0  0  0  0  0  0  0  0  0  0
    9.0042    1.0083    0.0000 C   0  0  0  0  0  0  0  0  0  0  0  0
   11.5167    0.3375    0.0000 C   0  0  0  0  0  0  0  0  0  0  0  0
   10.7917    0.1458    0.0000 C   0  0  0  0  0  0  0  0  0  0  0  0
    6.4500    1.3458    0.0000 C   0  0  0  0  0  0  0  0  0  0  0  0
    8.3250    1.8250    0.0000 O   0  0  0  0  0  0  0  0  0  0  0  0
    7.3167    1.9583    0.0000 O   0  0  0  0  0  0  0  0  0  0  0  0
    9.5375    0.4833    0.0000 N   0  0  0  0  0  0  0  0  0  0  0  0
   10.2542    0.6708    0.0000 C   0  0  0  0  0  0  0  0  0  0  0  0
    5.8000    0.9708    0.0000 C   0  0  0  0  0  0  0  0  0  0  0  0
   11.7042    1.0583    0.0000 C   0  0  0  0  0  0  0  0  0  0  0  0
    9.2000    1.7333    0.0000 O   0  0  0  0  0  0  0  0  0  0  0  0
    7.1000    0.2208    0.0000 C   0  0  0  0  0  0  0  0  0  0  0  0
    5.8000    0.2208    0.0000 C   0  0  0  0  0  0  0  0  0  0  0  0
    6.4500   -0.1542    0.0000 C   0  0  0  0  0  0  0  0  0  0  0  0
   11.1792    1.5958    0.0000 C   0  0  0  0  0  0  0  0  0  0  0  0
   12.0417   -0.1917    0.0000 Cl  0  0  0  0  0  0  0  0  0  0  0  0
   10.4542    1.3958    0.0000 C   0  0  0  0  0  0  0  0  0  0  0  0
   12.4292    1.2583    0.0000 Cl  0  0  0  0  0  0  0  0  0  0  0  0
    5.1542    1.3458    0.0000 C   0  0  0  0  0  0  0  0  0  0  0  0
    5.1542   -0.1542    0.0000 C   0  0  0  0  0  0  0  0  0  0  0  0
    4.5042    0.9708    0.0000 C   0  0  0  0  0  0  0  0  0  0  0  0
    4.5042    0.2208    0.0000 C   0  0  0  0  0  0  0  0  0  0  0  0
  2  1  1  0  0  0  0
  3  1  1  0  0  0  0
  4  2  1  0  0  0  0
  5  6  2  0  0  0  0
  5 13  1  0  0  0  0
  6 11  1  0  0  0  0
  7  3  2  0  0  0  0
  8  1  2  0  0  0  0
  9  1  2  0  0  0  0
 10  4  1  0  0  0  0
 11 10  1  0  0  0  0
 12  7  1  0  0  0  0
 13 18  2  0  0  0  0
 14  4  2  0  0  0  0
 15  3  1  0  0  0  0
 16 17  1  0  0  0  0
 16 12  1  0  0  0  0
 17 15  2  0  0  0  0
 18 20  1  0  0  0  0
 19  5  1  0  0  0  0
 20 11  2  0  0  0  0
 21 13  1  0  0  0  0
 22 12  2  0  0  0  0
 23 16  2  0  0  0  0
 24 22  1  0  0  0  0
 25 23  1  0  0  0  0
 25 24  2  0  0  0  0
M  END
>  <ID>
7936589

>  <Supplier>
ChemBridge

>  <clogP>
4.444000000000000e+000

>  <RB>
4

>  <tPSA>
6.323999999999997e+001

>  <Hacc>
3

>  <Hdon>
1

>  <LogSw>
-5.869000000000000e+000

>  <Group>
2

>  <Core>
429

$$$$
7696636
 OpenBabel03312015312D

 21 22  0  0  0  0  0  0  0  0999 V2000
   -2.3833    2.3833    0.0000 N   0  0  0  0  0  0  0  0  0  0  0  0
    1.8000    1.5833    0.0000 C   0  0  0  0  0  0  0  0  0  0  0  0
   -1.4625    2.3833    0.0000 C   0  0  0  0  0  0  0  0  0  0  0  0
    4.1167    0.7625    0.0000 C   0  0  0  0  0  0  0  0  0  0  0  0
    1.3375    2.3833    0.0000 N   0  0  0  0  0  0  0  0  0  0  0  0
    1.3375    0.7625    0.0000 O   0  0  0  0  0  0  0  0  0  0  0  0
    4.5792   -0.0292    0.0000 O   0  0  0  0  0  0  0  0  0  0  0  0
   -1.0000    1.5833    0.0000 C   0  0  0  0  0  0  0  0  0  0  0  0
   -1.0208    3.1708    0.0000 C   0  0  0  0  0  0  0  0  0  0  0  0
    0.4000    2.3833    0.0000 C   0  0  0  0  0  0  0  0  0  0  0  0
    2.7167    1.5833    0.0000 C   0  0  0  0  0  0  0  0  0  0  0  0
    3.1792    0.7625    0.0000 C   0  0  0  0  0  0  0  0  0  0  0  0
    4.5792    1.5833    0.0000 O   0  0  0  0  0  0  0  0  0  0  0  0
   -0.0625    1.5833    0.0000 C   0  0  0  0  0  0  0  0  0  0  0  0
   -0.0625    3.1833    0.0000 C   0  0  0  0  0  0  0  0  0  0  0  0
   -3.0458    3.0208    0.0000 C   0  0  0  0  0  0  0  0  0  0  0  0
   -2.4833    1.4833    0.0000 C   0  0  0  0  0  0  0  0  0  0  0  0
   -3.9458    2.9208    0.0000 C   0  0  0  0  0  0  0  0  0  0  0  0
   -3.2625    0.9625    0.0000 C   0  0  0  0  0  0  0  0  0  0  0  0
   -4.1458    1.2625    0.0000 C   0  0  0  0  0  0  0  0  0  0  0  0
   -4.4458    2.1458    0.0000 C   0  0  0  0  0  0  0  0  0  0  0  0
  2  5  1  0  0  0  0
  3  1  1  0  0  0  0
  4 12  1  0  0  0  0
  5 10  1  0  0  0  0
  6  2  2  0  0  0  0
  7  4  2  0  0  0  0
  8  3  2  0  0  0  0
  9  3  1  0  0  0  0
 10 15  1  0  0  0  0
 10 14  2  0  0  0  0
 11  2  1  0  0  0  0
 12 11  1  0  0  0  0
 13  4  1  0  0  0  0
 14  8  1  0  0  0  0
 15  9  2  0  0  0  0
 16  1  1  0  0  0  0
 17  1  1  0  0  0  0
 18 16  1  0  0  0  0
 19 17  1  0  0  0  0
 20 19  1  0  0  0  0
 21 18  1  0  0  0  0
 21 20  1  0  0  0  0
M  END
>  <ID>
7696636

>  <Supplier>
ChemBridge

>  <clogP>
2.861000000000000e+000

>  <RB>
5

>  <tPSA>
6.964000000000000e+001

>  <Hacc>
3

>  <Hdon>
2

>  <LogSw>
-3.773000000000000e+000

>  <Group>
3

$$$$
5720989
 OpenBabel03312015312D

 25 28  0  0  0  0  0  0  0  0999 V2000
   -2.2958   -7.5542    0.0000 C   0  0  0  0  0  0  0  0  0  0  0  0
   -4.7833   -4.0792    0.0000 N   0  0  0  0  0  0  0  0  0  0  0  0
   -4.7833  -10.9167    0.0000 N   0  0  0  0  0  0  0  0  0  0  0  0
    3.4500    3.6500    0.0000 C   0  0  0  0  0  0  0  0  0  0  0  0
    1.8500   -7.3292    0.0000 C   0  0  0  0  0  0  0  0  0  0  0  0
    7.6000    3.8833    0.0000 C   0  0  0  0  0  0  0  0  0  0  0  0
    1.4542   -0.0875    0.0000 N   0  0  0  0  0  0  0  0  0  0  0  0
    3.7792   -3.5792    0.0000 C   0  0  0  0  0  0  0  0  0  0  0  0
   -8.7542   -5.4667    0.0000 C   0  0  0  0  0  0  0  0  0  0  0  0
   -8.7542   -9.5875    0.0000 C   0  0  0  0  0  0  0  0  0  0  0  0
    9.3542    7.7000    0.0000 C   0  0  0  0  0  0  0  0  0  0  0  0
    1.2167    7.2292    0.0000 O   0  0  0  0  0  0  0  0  0  0  0  0
    6.9000   11.2167    0.0000 Cl  0  0  0  0  0  0  0  0  0  0  0  0
    4.1042  -10.7792    0.0000 C   0  0  0  0  0  0  0  0  0  0  0  0
    9.9500    0.5333    0.0000 C   0  0  0  0  0  0  0  0  0  0  0  0
    7.9292   -3.3500    0.0000 C   0  0  0  0  0  0  0  0  0  0  0  0
  -12.3375   -3.3500    0.0000 C   0  0  0  0  0  0  0  0  0  0  0  0
  -12.3375  -11.6792    0.0000 C   0  0  0  0  0  0  0  0  0  0  0  0
   13.5042    8.0542    0.0000 C   0  0  0  0  0  0  0  0  0  0  0  0
    8.2542  -10.6792    0.0000 C   0  0  0  0  0  0  0  0  0  0  0  0
   14.1000    0.7333    0.0000 C   0  0  0  0  0  0  0  0  0  0  0  0
   10.1875   -6.8292    0.0000 C   0  0  0  0  0  0  0  0  0  0  0  0
  -16.0000   -9.5875    0.0000 C   0  0  0  0  0  0  0  0  0  0  0  0
  -16.0000   -5.4667    0.0000 C   0  0  0  0  0  0  0  0  0  0  0  0
   15.9292    4.6042    0.0000 C   0  0  0  0  0  0  0  0  0  0  0  0
  2  1  2  0  0  0  0
  3  1  1  0  0  0  0
  4  7  1  0  0  0  0
  5  1  1  0  0  0  0
  6  4  1  0  0  0  0
  7  8  1  0  0  0  0
  8  5  2  0  0  0  0
  9  2  1  0  0  0  0
  9 10  2  0  0  0  0
 10  3  1  0  0  0  0
 11  6  2  0  0  0  0
 12  4  2  0  0  0  0
 13 11  1  0  0  0  0
 14  5  1  0  0  0  0
 15  6  1  0  0  0  0
 16  8  1  0  0  0  0
 17  9  1  0  0  0  0
 18 10  1  0  0  0  0
 19 11  1  0  0  0  0
 20 14  2  0  0  0  0
 21 15  2  0  0  0  0
 22 20  1  0  0  0  0
 22 16  2  0  0  0  0
 23 18  2  0  0  0  0
 24 17  2  0  0  0  0
 24 23  1  0  0  0  0
 25 21  1  0  0  0  0
 25 19  2  0  0  0  0
M  END
>  <ID>
5720989

>  <Supplier>
ChemBridge

>  <clogP>
3.270000000000000e+000

>  <RB>
3

>  <tPSA>
5.778000000000000e+001

>  <Hacc>
2

>  <Hdon>
2

>  <LogSw>
-4.529000000000000e+000

>  <Group>
3

>  <Core>
333

$$$$
7696634
 OpenBabel03312015312D

 27 29  0  0  0  0  0  0  0  0999 V2000
    4.8542   -0.5167    0.0000 N   0  0  0  0  0  0  0  0  0  0  0  0
    4.0375   -0.6042    0.0000 C   0  0  0  0  0  0  0  0  0  0  0  0
    3.8625   -1.4042    0.0000 N   0  0  0  0  0  0  0  0  0  0  0  0
    4.5750   -1.8250    0.0000 N   0  0  0  0  0  0  0  0  0  0  0  0
    5.1917   -1.2792    0.0000 C   0  0  0  0  0  0  0  0  0  0  0  0
    0.7792    0.8875    0.0000 C   0  0  0  0  0  0  0  0  0  0  0  0
    1.3292    0.2833    0.0000 N   0  0  0  0  0  0  0  0  0  0  0  0
    3.4875    0.0125    0.0000 S   0  0  0  0  0  0  0  0  0  0  0  0
    2.1292    0.4500    0.0000 C   0  0  0  0  0  0  0  0  0  0  0  0
   -0.0125    0.7208    0.0000 C   0  0  0  0  0  0  0  0  0  0  0  0
    1.0375    1.6708    0.0000 C   0  0  0  0  0  0  0  0  0  0  0  0
    5.9917   -1.4542    0.0000 C   0  0  0  0  0  0  0  0  0  0  0  0
    2.3792    1.2333    0.0000 O   0  0  0  0  0  0  0  0  0  0  0  0
    2.6792   -0.1542    0.0000 C   0  0  0  0  0  0  0  0  0  0  0  0
   -0.5708    1.3250    0.0000 C   0  0  0  0  0  0  0  0  0  0  0  0
    5.2750    0.1958    0.0000 C   0  0  0  0  0  0  0  0  0  0  0  0
    0.4917    2.2833    0.0000 C   0  0  0  0  0  0  0  0  0  0  0  0
    6.2417   -2.2375    0.0000 C   0  0  0  0  0  0  0  0  0  0  0  0
   -0.3208    2.1083    0.0000 C   0  0  0  0  0  0  0  0  0  0  0  0
    7.0542   -2.4125    0.0000 C   0  0  0  0  0  0  0  0  0  0  0  0
   -0.2625   -0.0542    0.0000 C   0  0  0  0  0  0  0  0  0  0  0  0
    0.7417    3.0583    0.0000 C   0  0  0  0  0  0  0  0  0  0  0  0
    7.3000   -3.2000    0.0000 C   0  0  0  0  0  0  0  0  0  0  0  0
    7.6042   -1.8042    0.0000 C   0  0  0  0  0  0  0  0  0  0  0  0
    8.4042   -1.9792    0.0000 C   0  0  0  0  0  0  0  0  0  0  0  0
    8.1042   -3.3792    0.0000 C   0  0  0  0  0  0  0  0  0  0  0  0
    8.6625   -2.7667    0.0000 C   0  0  0  0  0  0  0  0  0  0  0  0
  2  1  1  0  0  0  0
  3  2  2  0  0  0  0
  4  5  2  0  0  0  0
  4  3  1  0  0  0  0
  5  1  1  0  0  0  0
  6  7  1  0  0  0  0
  7  9  1  0  0  0  0
  8  2  1  0  0  0  0
  9 14  1  0  0  0  0
 10  6  1  0  0  0  0
 11  6  2  0  0  0  0
 12  5  1  0  0  0  0
 13  9  2  0  0  0  0
 14  8  1  0  0  0  0
 15 10  2  0  0  0  0
 15 19  1  0  0  0  0
 16  1  1  0  0  0  0
 17 11  1  0  0  0  0
 18 12  1  0  0  0  0
 19 17  2  0  0  0  0
 20 18  1  0  0  0  0
 21 10  1  0  0  0  0
 22 17  1  0  0  0  0
 23 20  2  0  0  0  0
 24 20  1  0  0  0  0
 25 24  2  0  0  0  0
 26 23  1  0  0  0  0
 27 25  1  0  0  0  0
 27 26  2  0  0  0  0
M  END
>  <ID>
7696634

>  <Supplier>
ChemBridge

>  <clogP>
2.701000000000000e+000

>  <RB>
7

>  <tPSA>
5.981000000000002e+001

>  <Hacc>
4

>  <Hdon>
1

>  <LogSw>
-5.794000000000000e+000

>  <Group>
2

>  <Core>
009

$$$$
7118976
 OpenBabel03312015312D

 22 23  0  0  0  0  0  0  0  0999 V2000
    2.8917   -4.2167    0.0000 C   0  0  0  0  0  0  0  0  0  0  0  0
    3.6042   -4.6292    0.0000 C   0  0  0  0  0  0  0  0  0  0  0  0
    4.3167   -4.2167    0.0000 C   0  0  0  0  0  0  0  0  0  0  0  0
    7.1792   -4.2250    0.0000 C   0  0  0  0  0  0  0  0  0  0  0  0
    5.0417   -4.6292    0.0000 C   0  0  0  0  0  0  0  0  0  0  0  0
    2.8917   -3.3875    0.0000 C   0  0  0  0  0  0  0  0  0  0  0  0
    2.1792   -4.6250    0.0000 C   0  0  0  0  0  0  0  0  0  0  0  0
    7.1792   -3.4000    0.0000 C   0  0  0  0  0  0  0  0  0  0  0  0
    6.4667   -4.6375    0.0000 C   0  0  0  0  0  0  0  0  0  0  0  0
    3.6042   -5.4542    0.0000 O   0  0  0  0  0  0  0  0  0  0  0  0
    5.7542   -4.2167    0.0000 C   0  0  0  0  0  0  0  0  0  0  0  0
    2.1792   -2.9750    0.0000 C   0  0  0  0  0  0  0  0  0  0  0  0
    6.4542   -2.9875    0.0000 C   0  0  0  0  0  0  0  0  0  0  0  0
    1.4667   -4.2125    0.0000 C   0  0  0  0  0  0  0  0  0  0  0  0
    5.7417   -3.4000    0.0000 C   0  0  0  0  0  0  0  0  0  0  0  0
    1.4667   -3.3875    0.0000 C   0  0  0  0  0  0  0  0  0  0  0  0
    7.8917   -4.6375    0.0000 O   0  0  0  0  0  0  0  0  0  0  0  0
    3.6042   -2.9667    0.0000 O   0  0  0  0  0  0  0  0  0  0  0  0
    0.7542   -4.6250    0.0000 Cl  0  0  0  0  0  0  0  0  0  0  0  0
    7.8917   -2.9875    0.0000 O   0  0  0  0  0  0  0  0  0  0  0  0
    8.6042   -4.2250    0.0000 C   0  0  0  0  0  0  0  0  0  0  0  0
    7.8917   -2.1625    0.0000 C   0  0  0  0  0  0  0  0  0  0  0  0
  2  1  1  0  0  0  0
  3  2  1  0  0  0  0
  4  9  1  0  0  0  0
  5  3  2  0  0  0  0
  6  1  1  0  0  0  0
  7  1  2  0  0  0  0
  8 13  1  0  0  0  0
  8  4  2  0  0  0  0
  9 11  2  0  0  0  0
 10  2  2  0  0  0  0
 11  5  1  0  0  0  0
 12  6  2  0  0  0  0
 13 15  2  0  0  0  0
 14  7  1  0  0  0  0
 15 11  1  0  0  0  0
 16 14  2  0  0  0  0
 16 12  1  0  0  0  0
 17  4  1  0  0  0  0
 18  6  1  0  0  0  0
 19 14  1  0  0  0  0
 20  8  1  0  0  0  0
 21 17  1  0  0  0  0
 22 20  1  0  0  0  0
M  END
>  <ID>
7118976

>  <Supplier>
ChemBridge

>  <clogP>
4.690000000000000e+000

>  <RB>
3

>  <tPSA>
5.576000000000001e+001

>  <Hacc>
4

>  <Hdon>
1

>  <LogSw>
-4.950000000000000e+000

>  <Group>
1

>  <Core>
237

$$$$
7118974
 OpenBabel03312015312D

 22 24  0  0  0  0  0  0  0  0999 V2000
   -0.0708    0.1833    0.0000 N   0  0  0  0  0  0  0  0  0  0  0  0
   -0.8333   -0.2542    0.0000 C   0  0  0  0  0  0  0  0  0  0  0  0
    1.4500    1.0625    0.0000 N   0  0  0  0  0  0  0  0  0  0  0  0
   -1.5958    0.1625    0.0000 C   0  0  0  0  0  0  0  0  0  0  0  0
   -3.0958    0.1833    0.0000 C   0  0  0  0  0  0  0  0  0  0  0  0
   -2.3500   -0.2542    0.0000 C   0  0  0  0  0  0  0  0  0  0  0  0
   -3.9125   -0.0792    0.0000 S   0  0  0  0  0  0  0  0  0  0  0  0
    2.1875    1.4833    0.0000 C   0  0  0  0  0  0  0  0  0  0  0  0
    0.6875   -0.2542    0.0000 C   0  0  0  0  0  0  0  0  0  0  0  0
   -0.0708    1.0625    0.0000 C   0  0  0  0  0  0  0  0  0  0  0  0
    1.4500    0.1833    0.0000 C   0  0  0  0  0  0  0  0  0  0  0  0
    0.6875    1.4833    0.0000 C   0  0  0  0  0  0  0  0  0  0  0  0
   -4.4125    0.6208    0.0000 C   0  0  0  0  0  0  0  0  0  0  0  0
   -0.8333   -1.1375    0.0000 O   0  0  0  0  0  0  0  0  0  0  0  0
   -3.0958    1.0458    0.0000 C   0  0  0  0  0  0  0  0  0  0  0  0
   -3.9125    1.3000    0.0000 C   0  0  0  0  0  0  0  0  0  0  0  0
    2.1875    2.3458    0.0000 C   0  0  0  0  0  0  0  0  0  0  0  0
    2.9500    1.0625    0.0000 C   0  0  0  0  0  0  0  0  0  0  0  0
    3.6875    2.3625    0.0000 C   0  0  0  0  0  0  0  0  0  0  0  0
    3.7042    1.5000    0.0000 C   0  0  0  0  0  0  0  0  0  0  0  0
    2.9292    2.7833    0.0000 C   0  0  0  0  0  0  0  0  0  0  0  0
    4.4500    2.8000    0.0000 F   0  0  0  0  0  0  0  0  0  0  0  0
  2  1  1  0  0  0  0
  3 12  1  0  0  0  0
  3 11  1  0  0  0  0
  4  2  1  0  0  0  0
  5  6  1  0  0  0  0
  6  4  2  0  0  0  0
  7  5  1  0  0  0  0
  8  3  1  0  0  0  0
  9  1  1  0  0  0  0
 10  1  1  0  0  0  0
 11  9  1  0  0  0  0
 12 10  1  0  0  0  0
 13  7  1  0  0  0  0
 14  2  2  0  0  0  0
 15  5  2  0  0  0  0
 16 15  1  0  0  0  0
 16 13  2  0  0  0  0
 17  8  1  0  0  0  0
 18  8  2  0  0  0  0
 19 20  2  0  0  0  0
 19 21  1  0  0  0  0
 20 18  1  0  0  0  0
 21 17  2  0  0  0  0
 22 19  1  0  0  0  0
M  END
>  <ID>
7118974

>  <Supplier>
ChemBridge

>  <clogP>
3.000000000000000e+000

>  <RB>
3

>  <tPSA>
2.355000000000000e+001

>  <Hacc>
1

>  <Hdon>
0

>  <LogSw>
-4.069000000000000e+000

>  <Group>
3

>  <Core>
158

$$$$
6738750
 OpenBabel03312015312D

 26 28  0  0  0  0  0  0  0  0999 V2000
    2.7292   -1.1167    0.0000 C   0  0  0  0  0  0  0  0  0  0  0  0
    3.5167   -1.3625    0.0000 N   0  0  0  0  0  0  0  0  0  0  0  0
    2.0167   -1.5292    0.0000 N   0  0  0  0  0  0  0  0  0  0  0  0
    3.9917   -0.6917    0.0000 C   0  0  0  0  0  0  0  0  0  0  0  0
    1.3042   -1.1167    0.0000 C   0  0  0  0  0  0  0  0  0  0  0  0
    2.7250   -0.2917    0.0000 S   0  0  0  0  0  0  0  0  0  0  0  0
    3.5042   -0.0292    0.0000 C   0  0  0  0  0  0  0  0  0  0  0  0
    4.8167   -0.6792    0.0000 C   0  0  0  0  0  0  0  0  0  0  0  0
    0.5917   -1.5375    0.0000 C   0  0  0  0  0  0  0  0  0  0  0  0
    1.3000   -0.2917    0.0000 O   0  0  0  0  0  0  0  0  0  0  0  0
   -0.1250   -1.1250    0.0000 C   0  0  0  0  0  0  0  0  0  0  0  0
    0.5917   -2.3667    0.0000 C   0  0  0  0  0  0  0  0  0  0  0  0
    5.2375   -1.3917    0.0000 C   0  0  0  0  0  0  0  0  0  0  0  0
    5.2167    0.0375    0.0000 C   0  0  0  0  0  0  0  0  0  0  0  0
    6.4667   -0.6625    0.0000 C   0  0  0  0  0  0  0  0  0  0  0  0
   -0.8375   -2.3667    0.0000 C   0  0  0  0  0  0  0  0  0  0  0  0
    6.0417    0.0500    0.0000 C   0  0  0  0  0  0  0  0  0  0  0  0
    6.0542   -1.3792    0.0000 C   0  0  0  0  0  0  0  0  0  0  0  0
   -0.1250   -2.7792    0.0000 C   0  0  0  0  0  0  0  0  0  0  0  0
   -0.8375   -1.5375    0.0000 C   0  0  0  0  0  0  0  0  0  0  0  0
    7.2917   -0.6500    0.0000 F   0  0  0  0  0  0  0  0  0  0  0  0
   -1.5583   -2.7792    0.0000 O   0  0  0  0  0  0  0  0  0  0  0  0
   -2.2708   -2.3667    0.0000 C   0  0  0  0  0  0  0  0  0  0  0  0
   -2.9833   -2.7792    0.0000 C   0  0  0  0  0  0  0  0  0  0  0  0
   -3.6958   -2.3667    0.0000 C   0  0  0  0  0  0  0  0  0  0  0  0
   -4.4125   -2.7750    0.0000 C   0  0  0  0  0  0  0  0  0  0  0  0
  2  1  2  0  0  0  0
  3  1  1  0  0  0  0
  4  2  1  0  0  0  0
  4  7  2  0  0  0  0
  5  3  1  0  0  0  0
  6  1  1  0  0  0  0
  7  6  1  0  0  0  0
  8  4  1  0  0  0  0
  9  5  1  0  0  0  0
 10  5  2  0  0  0  0
 11  9  2  0  0  0  0
 12  9  1  0  0  0  0
 13  8  2  0  0  0  0
 14  8  1  0  0  0  0
 15 17  1  0  0  0  0
 16 19  1  0  0  0  0
 17 14  2  0  0  0  0
 18 13  1  0  0  0  0
 18 15  2  0  0  0  0
 19 12  2  0  0  0  0
 20 11  1  0  0  0  0
 20 16  2  0  0  0  0
 21 15  1  0  0  0  0
 22 16  1  0  0  0  0
 23 22  1  0  0  0  0
 24 23  1  0  0  0  0
 25 24  1  0  0  0  0
 26 25  1  0  0  0  0
M  END
>  <ID>
6738750

>  <Supplier>
ChemBridge

>  <clogP>
5.810000000000000e+000

>  <RB>
5

>  <tPSA>
5.121999999999999e+001

>  <Hacc>
3

>  <Hdon>
1

>  <LogSw>
-6.863000000000000e+000

>  <Group>
1

>  <Core>
227

$$$$
7118972
 OpenBabel03312015312D

 24 25  0  0  0  0  0  0  0  0999 V2000
   -2.9125   -0.6167    0.0000 C   0  0  0  0  0  0  0  0  0  0  0  0
   -4.4083   -0.6375    0.0000 N   0  0  0  0  0  0  0  0  0  0  0  0
   -3.6500   -1.9042    0.0000 N   0  0  0  0  0  0  0  0  0  0  0  0
   -3.6500   -0.2000    0.0000 C   0  0  0  0  0  0  0  0  0  0  0  0
   -2.9125   -1.4875    0.0000 C   0  0  0  0  0  0  0  0  0  0  0  0
   -4.4083   -1.4667    0.0000 C   0  0  0  0  0  0  0  0  0  0  0  0
    3.0500    1.0708    0.0000 C   0  0  0  0  0  0  0  0  0  0  0  0
    2.2875    0.6625    0.0000 N   0  0  0  0  0  0  0  0  0  0  0  0
    0.8000   -0.2000    0.0000 N   0  0  0  0  0  0  0  0  0  0  0  0
   -2.1708   -0.2000    0.0000 C   0  0  0  0  0  0  0  0  0  0  0  0
    3.0500    1.9333    0.0000 S   0  0  0  0  0  0  0  0  0  0  0  0
   -3.6500    0.6625    0.0000 O   0  0  0  0  0  0  0  0  0  0  0  0
   -2.1708   -1.9292    0.0000 O   0  0  0  0  0  0  0  0  0  0  0  0
   -5.1625   -1.8875    0.0000 O   0  0  0  0  0  0  0  0  0  0  0  0
    2.2875   -0.1792    0.0000 C   0  0  0  0  0  0  0  0  0  0  0  0
    1.5500    1.0958    0.0000 C   0  0  0  0  0  0  0  0  0  0  0  0
    3.7667    0.6208    0.0000 N   0  0  0  0  0  0  0  0  0  0  0  0
    0.8000    0.6625    0.0000 C   0  0  0  0  0  0  0  0  0  0  0  0
    1.5500   -0.6167    0.0000 C   0  0  0  0  0  0  0  0  0  0  0  0
   -1.4333   -0.6167    0.0000 N   0  0  0  0  0  0  0  0  0  0  0  0
    0.0542   -0.6167    0.0000 C   0  0  0  0  0  0  0  0  0  0  0  0
   -0.6833   -0.2000    0.0000 C   0  0  0  0  0  0  0  0  0  0  0  0
    4.5167    1.0500    0.0000 C   0  0  0  0  0  0  0  0  0  0  0  0
    5.2375    0.6000    0.0000 C   0  0  0  0  0  0  0  0  0  0  0  0
  2  4  1  0  0  0  0
  2  6  1  0  0  0  0
  3  5  1  0  0  0  0
  4  1  1  0  0  0  0
  5  1  1  0  0  0  0
  6  3  1  0  0  0  0
  7  8  1  0  0  0  0
  8 15  1  0  0  0  0
  9 21  1  0  0  0  0
 10  1  2  0  0  0  0
 11  7  2  0  0  0  0
 12  4  2  0  0  0  0
 13  5  2  0  0  0  0
 14  6  2  0  0  0  0
 15 19  1  0  0  0  0
 16 18  1  0  0  0  0
 16  8  1  0  0  0  0
 17  7  1  0  0  0  0
 18  9  1  0  0  0  0
 19  9  1  0  0  0  0
 20 10  1  0  0  0  0
 21 22  1  0  0  0  0
 22 20  1  0  0  0  0
 23 17  1  0  0  0  0
 24 23  1  0  0  0  0
M  END
>  <ID>
7118972

>  <Supplier>
ChemBridge

>  <clogP>
3.200000000000000e-001

>  <RB>
4

>  <tPSA>
1.058100000000000e+002

>  <Hacc>
4

>  <Hdon>
4

>  <LogSw>
-2.058000000000000e+000

>  <Group>
2

>  <Core>
192

$$$$
7462614
 OpenBabel03312015312D

 28 29  0  0  0  0  0  0  0  0999 V2000
    3.6292   -2.3375    0.0000 S   0  0  0  0  0  0  0  0  0  0  0  0
    3.4667   -1.4042    0.0000 C   0  0  0  0  0  0  0  0  0  0  0  0
    1.3667    1.0208    0.0000 C   0  0  0  0  0  0  0  0  0  0  0  0
    1.5500    0.1208    0.0000 N   0  0  0  0  0  0  0  0  0  0  0  0
    2.4292   -0.2042    0.0000 C   0  0  0  0  0  0  0  0  0  0  0  0
    0.4875    1.3208    0.0000 C   0  0  0  0  0  0  0  0  0  0  0  0
    2.6042   -1.1042    0.0000 C   0  0  0  0  0  0  0  0  0  0  0  0
    0.3042    2.2208    0.0000 C   0  0  0  0  0  0  0  0  0  0  0  0
    4.5292   -2.1875    0.0000 N   0  0  0  0  0  0  0  0  0  0  0  0
    2.7042   -2.4875    0.0000 O   0  0  0  0  0  0  0  0  0  0  0  0
    3.7667   -3.2375    0.0000 O   0  0  0  0  0  0  0  0  0  0  0  0
    3.1500    0.3958    0.0000 C   0  0  0  0  0  0  0  0  0  0  0  0
    2.0500    1.6208    0.0000 O   0  0  0  0  0  0  0  0  0  0  0  0
    4.1667   -0.8042    0.0000 C   0  0  0  0  0  0  0  0  0  0  0  0
    4.0042    0.0625    0.0000 C   0  0  0  0  0  0  0  0  0  0  0  0
   -0.5500    2.5208    0.0000 C   0  0  0  0  0  0  0  0  0  0  0  0
    3.0042    1.3208    0.0000 O   0  0  0  0  0  0  0  0  0  0  0  0
   -0.1958    0.7208    0.0000 C   0  0  0  0  0  0  0  0  0  0  0  0
    4.8667   -1.3167    0.0000 C   0  0  0  0  0  0  0  0  0  0  0  0
    5.1042   -2.8792    0.0000 C   0  0  0  0  0  0  0  0  0  0  0  0
   -1.2333    1.9208    0.0000 C   0  0  0  0  0  0  0  0  0  0  0  0
   -0.7333    3.4208    0.0000 C   0  0  0  0  0  0  0  0  0  0  0  0
    3.5875    1.8958    0.0000 C   0  0  0  0  0  0  0  0  0  0  0  0
    4.7875   -3.7500    0.0000 C   0  0  0  0  0  0  0  0  0  0  0  0
    5.7667   -1.1667    0.0000 C   0  0  0  0  0  0  0  0  0  0  0  0
   -2.0958    2.1958    0.0000 C   0  0  0  0  0  0  0  0  0  0  0  0
   -1.5958    3.7208    0.0000 C   0  0  0  0  0  0  0  0  0  0  0  0
   -2.2708    3.1208    0.0000 C   0  0  0  0  0  0  0  0  0  0  0  0
  2  1  1  0  0  0  0
  3  4  1  0  0  0  0
  4  5  1  0  0  0  0
  5  7  2  0  0  0  0
  6  3  1  0  0  0  0
  7  2  1  0  0  0  0
  8  6  2  0  0  0  0
  9  1  1  0  0  0  0
 10  1  2  0  0  0  0
 11  1  2  0  0  0  0
 12 15  2  0  0  0  0
 12  5  1  0  0  0  0
 13  3  2  0  0  0  0
 14  2  2  0  0  0  0
 15 14  1  0  0  0  0
 16  8  1  0  0  0  0
 17 12  1  0  0  0  0
 18  6  1  0  0  0  0
 19  9  1  0  0  0  0
 20  9  1  0  0  0  0
 21 16  2  0  0  0  0
 22 16  1  0  0  0  0
 23 17  1  0  0  0  0
 24 20  1  0  0  0  0
 25 19  1  0  0  0  0
 26 21  1  0  0  0  0
 27 22  2  0  0  0  0
 28 27  1  0  0  0  0
 28 26  2  0  0  0  0
M  END
>  <ID>
7462614

>  <Supplier>
ChemBridge

>  <clogP>
4.145000000000000e+000

>  <RB>
4

>  <tPSA>
7.570999999999999e+001

>  <Hacc>
5

>  <Hdon>
1

>  <LogSw>
-5.452000000000000e+000

>  <Group>
2

>  <Core>
236

$$$$
6738759
 OpenBabel03312015312D

 28 31  0  0  0  0  0  0  0  0999 V2000
    4.7542   -2.0667    0.0000 N   0  0  0  0  0  0  0  0  0  0  0  0
    4.9750   -2.8667    0.0000 C   0  0  0  0  0  0  0  0  0  0  0  0
    4.2792   -3.3250    0.0000 N   0  0  0  0  0  0  0  0  0  0  0  0
    3.9250   -2.0292    0.0000 N   0  0  0  0  0  0  0  0  0  0  0  0
    5.4500   -1.6167    0.0000 C   0  0  0  0  0  0  0  0  0  0  0  0
    3.6375   -2.8042    0.0000 C   0  0  0  0  0  0  0  0  0  0  0  0
    6.1000   -2.1292    0.0000 C   0  0  0  0  0  0  0  0  0  0  0  0
    5.8042   -2.9042    0.0000 S   0  0  0  0  0  0  0  0  0  0  0  0
    6.9000   -1.9167    0.0000 C   0  0  0  0  0  0  0  0  0  0  0  0
    2.8375   -3.0250    0.0000 C   0  0  0  0  0  0  0  0  0  0  0  0
    8.8667   -2.8625    0.0000 C   0  0  0  0  0  0  0  0  0  0  0  0
    5.4917   -0.7875    0.0000 O   0  0  0  0  0  0  0  0  0  0  0  0
    7.4875   -2.5042    0.0000 C   0  0  0  0  0  0  0  0  0  0  0  0
    8.6542   -3.6667    0.0000 C   0  0  0  0  0  0  0  0  0  0  0  0
    8.2792   -2.2875    0.0000 C   0  0  0  0  0  0  0  0  0  0  0  0
    2.6292   -3.8250    0.0000 C   0  0  0  0  0  0  0  0  0  0  0  0
    2.2500   -2.4417    0.0000 C   0  0  0  0  0  0  0  0  0  0  0  0
    7.8542   -3.8917    0.0000 C   0  0  0  0  0  0  0  0  0  0  0  0
    0.4417   -3.6792    0.0000 O   0  0  0  0  0  0  0  0  0  0  0  0
    1.2417   -3.4625    0.0000 C   0  0  0  0  0  0  0  0  0  0  0  0
    9.6667   -2.6417    0.0000 Cl  0  0  0  0  0  0  0  0  0  0  0  0
    7.2667   -3.3042    0.0000 C   0  0  0  0  0  0  0  0  0  0  0  0
    9.2500   -4.2542    0.0000 Cl  0  0  0  0  0  0  0  0  0  0  0  0
    1.8375   -4.0417    0.0000 C   0  0  0  0  0  0  0  0  0  0  0  0
    1.4500   -2.6542    0.0000 C   0  0  0  0  0  0  0  0  0  0  0  0
   -0.1500   -3.1000    0.0000 C   0  0  0  0  0  0  0  0  0  0  0  0
   -0.9500   -3.3167    0.0000 C   0  0  0  0  0  0  0  0  0  0  0  0
    0.0625   -2.3000    0.0000 C   0  0  0  0  0  0  0  0  0  0  0  0
  2  1  1  0  0  0  0
  3  2  2  0  0  0  0
  4  1  1  0  0  0  0
  5  1  1  0  0  0  0
  6  4  2  0  0  0  0
  6  3  1  0  0  0  0
  7  5  1  0  0  0  0
  8  2  1  0  0  0  0
  8  7  1  0  0  0  0
  9  7  2  0  0  0  0
 10  6  1  0  0  0  0
 11 15  2  0  0  0  0
 11 14  1  0  0  0  0
 12  5  2  0  0  0  0
 13  9  1  0  0  0  0
 14 18  2  0  0  0  0
 15 13  1  0  0  0  0
 16 10  1  0  0  0  0
 17 10  2  0  0  0  0
 18 22  1  0  0  0  0
 19 20  1  0  0  0  0
 20 25  2  0  0  0  0
 20 24  1  0  0  0  0
 21 11  1  0  0  0  0
 22 13  2  0  0  0  0
 23 14  1  0  0  0  0
 24 16  2  0  0  0  0
 25 17  1  0  0  0  0
 26 19  1  0  0  0  0
 27 26  1  0  0  0  0
 28 26  1  0  0  0  0
M  END
>  <ID>
6738759

>  <Supplier>
ChemBridge

>  <clogP>
4.340000000000000e+000

>  <RB>
3

>  <tPSA>
5.649000000000000e+001

>  <Hacc>
5

>  <Hdon>
0

>  <LogSw>
-6.058000000000000e+000

>  <Group>
2

>  <Core>
264

$$$$
7662971
 OpenBabel03312015312D

 29 33  0  0  0  0  0  0  0  0999 V2000
   -0.4333   -1.0667    0.0000 C   0  0  0  0  0  0  0  0  0  0  0  0
   -0.4333   -0.3500    0.0000 C   0  0  0  0  0  0  0  0  0  0  0  0
   -1.1125   -1.2875    0.0000 N   0  0  0  0  0  0  0  0  0  0  0  0
   -1.5333   -0.7042    0.0000 N   0  0  0  0  0  0  0  0  0  0  0  0
    0.8292   -0.3500    0.0000 C   0  0  0  0  0  0  0  0  0  0  0  0
    0.1875   -1.4292    0.0000 O   0  0  0  0  0  0  0  0  0  0  0  0
    0.1875    0.0125    0.0000 C   0  0  3  0  0  0  0  0  0  0  0  0
    0.8292   -1.0667    0.0000 C   0  0  0  0  0  0  0  0  0  0  0  0
   -1.1125   -0.1292    0.0000 C   0  0  0  0  0  0  0  0  0  0  0  0
    0.1875    0.7333    0.0000 C   0  0  0  0  0  0  0  0  0  0  0  0
   -1.3208   -1.9542    0.0000 C   0  0  0  0  0  0  0  0  0  0  0  0
    1.4667    0.0125    0.0000 C   0  0  0  0  0  0  0  0  0  0  0  0
    2.1042    0.3708    0.0000 N   0  0  0  0  0  0  0  0  0  0  0  0
    0.8042    1.0958    0.0000 C   0  0  0  0  0  0  0  0  0  0  0  0
    0.7875    1.8125    0.0000 C   0  0  0  0  0  0  0  0  0  0  0  0
   -0.8458   -2.4500    0.0000 C   0  0  0  0  0  0  0  0  0  0  0  0
    0.1667    2.1708    0.0000 C   0  0  0  0  0  0  0  0  0  0  0  0
    1.3292    2.2958    0.0000 O   0  0  0  0  0  0  0  0  0  0  0  0
    0.3292    2.8708    0.0000 O   0  0  0  0  0  0  0  0  0  0  0  0
   -0.4500    1.0958    0.0000 C   0  0  0  0  0  0  0  0  0  0  0  0
    1.0500    2.9583    0.0000 C   0  0  0  0  0  0  0  0  0  0  0  0
    1.4667   -1.4292    0.0000 N   0  0  0  0  0  0  0  0  0  0  0  0
   -0.4500    1.8125    0.0000 C   0  0  0  0  0  0  0  0  0  0  0  0
   -1.0333   -3.1375    0.0000 C   0  0  0  0  0  0  0  0  0  0  0  0
   -1.3208    0.5458    0.0000 C   0  0  0  0  0  0  0  0  0  0  0  0
   -0.5500   -3.6542    0.0000 Cl  0  0  0  0  0  0  0  0  0  0  0  0
   -2.0208   -2.1375    0.0000 C   0  0  0  0  0  0  0  0  0  0  0  0
   -2.2000   -2.8000    0.0000 C   0  0  0  0  0  0  0  0  0  0  0  0
   -1.7000   -3.3042    0.0000 C   0  0  0  0  0  0  0  0  0  0  0  0
  2  1  2  0  0  0  0
  3  1  1  0  0  0  0
  4  3  1  0  0  0  0
  4  9  2  0  0  0  0
  5  8  2  0  0  0  0
  5  7  1  0  0  0  0
  6  1  1  0  0  0  0
  7  2  1  0  0  0  0
  8  6  1  0  0  0  0
  9  2  1  0  0  0  0
 10  7  1  0  0  0  0
 11  3  1  0  0  0  0
 12  5  1  0  0  0  0
 13 12  3  0  0  0  0
 14 10  2  0  0  0  0
 15 14  1  0  0  0  0
 15 17  2  0  0  0  0
 16 11  1  0  0  0  0
 17 23  1  0  0  0  0
 18 15  1  0  0  0  0
 19 17  1  0  0  0  0
 19 21  1  0  0  0  0
 20 10  1  0  0  0  0
 21 18  1  0  0  0  0
 22  8  1  0  0  0  0
 23 20  2  0  0  0  0
 24 16  2  0  0  0  0
 24 29  1  0  0  0  0
 25  9  1  0  0  0  0
 26 24  1  0  0  0  0
 27 11  2  0  0  0  0
 28 27  1  0  0  0  0
 29 28  2  0  0  0  0
M  END
>  <ID>
7662971

>  <Supplier>
ChemBridge

>  <clogP>
5.040000000000000e+000

>  <RB>
2

>  <tPSA>
9.531999999999999e+001

>  <Hacc>
6

>  <Hdon>
1

>  <LogSw>
-4.515000000000000e+000

>  <Group>
1

>  <Core>
092

$$$$
9078065
 OpenBabel03312015312D

 19 20  0  0  0  0  0  0  0  0999 V2000
    4.8292    1.6583    0.0000 C   0  0  0  0  0  0  0  0  0  0  0  0
    4.0792    1.6583    0.0000 C   0  0  0  0  0  0  0  0  0  0  0  0
    5.2750    1.0500    0.0000 C   0  0  0  0  0  0  0  0  0  0  0  0
    5.2750    2.2708    0.0000 C   0  0  0  0  0  0  0  0  0  0  0  0
    5.9875    1.2833    0.0000 O   0  0  0  0  0  0  0  0  0  0  0  0
    5.9875    2.0333    0.0000 C   0  0  0  0  0  0  0  0  0  0  0  0
    0.3292    1.6583    0.0000 C   0  0  0  0  0  0  0  0  0  0  0  0
    3.7042    2.3083    0.0000 N   0  0  0  0  0  0  0  0  0  0  0  0
   -0.0458    1.0083    0.0000 N   0  0  0  0  0  0  0  0  0  0  0  0
    3.7042    1.0083    0.0000 O   0  0  0  0  0  0  0  0  0  0  0  0
    0.7042    2.3083    0.0000 S   0  0  0  0  0  0  0  0  0  0  0  0
    2.9542    2.3083    0.0000 C   0  0  0  0  0  0  0  0  0  0  0  0
    1.4542    2.3083    0.0000 C   0  0  0  0  0  0  0  0  0  0  0  0
    5.0417    0.3375    0.0000 C   0  0  0  0  0  0  0  0  0  0  0  0
    2.5792    1.6583    0.0000 C   0  0  0  0  0  0  0  0  0  0  0  0
    2.5792    2.9583    0.0000 C   0  0  0  0  0  0  0  0  0  0  0  0
    1.8292    2.9583    0.0000 C   0  0  0  0  0  0  0  0  0  0  0  0
    1.8292    1.6583    0.0000 C   0  0  0  0  0  0  0  0  0  0  0  0
    6.5917    2.4708    0.0000 C   0  0  0  0  0  0  0  0  0  0  0  0
  2  1  1  0  0  0  0
  3  1  2  0  0  0  0
  4  1  1  0  0  0  0
  5  3  1  0  0  0  0
  6  4  2  0  0  0  0
  6  5  1  0  0  0  0
  7 11  1  0  0  0  0
  8  2  1  0  0  0  0
  9  7  3  0  0  0  0
 10  2  2  0  0  0  0
 11 13  1  0  0  0  0
 12  8  1  0  0  0  0
 13 17  2  0  0  0  0
 13 18  1  0  0  0  0
 14  3  1  0  0  0  0
 15 12  1  0  0  0  0
 16 12  2  0  0  0  0
 17 16  1  0  0  0  0
 18 15  2  0  0  0  0
 19  6  1  0  0  0  0
M  END
>  <ID>
9078065

>  <Supplier>
ChemBridge

>  <clogP>
2.897000000000000e+000

>  <RB>
3

>  <tPSA>
6.603000000000000e+001

>  <Hacc>
3

>  <Hdon>
1

>  <LogSw>
-3.661000000000000e+000

>  <Group>
2

>  <Core>
511

$$$$
9116037
 OpenBabel03312015312D

 20 21  0  0  0  0  0  0  0  0999 V2000
    4.3667    2.5333    0.0000 N   0  0  0  0  0  0  0  0  0  0  0  0
    5.0167    2.9083    0.0000 C   0  0  0  0  0  0  0  0  0  0  0  0
    3.7167    2.9083    0.0000 C   0  0  0  0  0  0  0  0  0  0  0  0
    4.3667    4.0292    0.0000 N   0  0  0  0  0  0  0  0  0  0  0  0
    7.6125    2.9083    0.0000 C   0  0  0  0  0  0  0  0  0  0  0  0
    5.0167    3.6583    0.0000 N   0  0  0  0  0  0  0  0  0  0  0  0
    8.2625    2.5333    0.0000 C   0  0  0  0  0  0  0  0  0  0  0  0
    3.7167    3.6583    0.0000 C   0  0  0  0  0  0  0  0  0  0  0  0
    5.6667    2.5333    0.0000 N   0  0  0  0  0  0  0  0  0  0  0  0
    7.6125    3.6583    0.0000 C   0  0  0  0  0  0  0  0  0  0  0  0
    6.9625    2.5333    0.0000 C   0  0  0  0  0  0  0  0  0  0  0  0
    3.0667    2.5333    0.0000 O   0  0  0  0  0  0  0  0  0  0  0  0
    6.3125    2.9083    0.0000 C   0  0  0  0  0  0  0  0  0  0  0  0
    8.0667    1.8083    0.0000 F   0  0  0  0  0  0  0  0  0  0  0  0
    8.9667    2.2833    0.0000 F   0  0  0  0  0  0  0  0  0  0  0  0
    8.5792    3.2125    0.0000 F   0  0  0  0  0  0  0  0  0  0  0  0
    6.9625    4.0292    0.0000 C   0  0  0  0  0  0  0  0  0  0  0  0
    6.3125    3.6583    0.0000 C   0  0  0  0  0  0  0  0  0  0  0  0
    8.2625    4.0292    0.0000 Cl  0  0  0  0  0  0  0  0  0  0  0  0
    3.0667    4.0292    0.0000 C   0  0  0  0  0  0  0  0  0  0  0  0
  2  1  1  0  0  0  0
  3  1  1  0  0  0  0
  4  8  2  0  0  0  0
  5 11  2  0  0  0  0
  5 10  1  0  0  0  0
  6  2  2  0  0  0  0
  6  4  1  0  0  0  0
  7  5  1  0  0  0  0
  8  3  1  0  0  0  0
  9  2  1  0  0  0  0
 10 17  2  0  0  0  0
 11 13  1  0  0  0  0
 12  3  2  0  0  0  0
 13  9  1  0  0  0  0
 14  7  1  0  0  0  0
 15  7  1  0  0  0  0
 16  7  1  0  0  0  0
 17 18  1  0  0  0  0
 18 13  2  0  0  0  0
 19 10  1  0  0  0  0
 20  8  1  0  0  0  0
M  END
>  <ID>
9116037

>  <Supplier>
ChemBridge

>  <clogP>
2.747000000000000e+000

>  <RB>
2

>  <tPSA>
7.066999999999999e+001

>  <Hacc>
3

>  <Hdon>
2

>  <LogSw>
-4.918000000000000e+000

>  <Group>
2

$$$$
9116036
 OpenBabel03312015312D

 27 30  0  0  0  0  0  0  0  0999 V2000
    3.7500    2.3958    0.0000 C   0  0  0  0  0  0  0  0  0  0  0  0
    4.1250    1.7458    0.0000 C   0  0  0  0  0  0  0  0  0  0  0  0
    4.9375    2.6458    0.0000 C   0  0  0  0  0  0  0  0  0  0  0  0
    4.2500    2.9583    0.0000 N   0  0  0  0  0  0  0  0  0  0  0  0
    4.8542    1.9000    0.0000 N   0  0  0  0  0  0  0  0  0  0  0  0
    3.7500    1.0958    0.0000 N   0  0  0  0  0  0  0  0  0  0  0  0
    2.6250    1.7458    0.0000 N   0  0  0  0  0  0  0  0  0  0  0  0
    3.0000    1.0958    0.0000 C   0  0  0  0  0  0  0  0  0  0  0  0
    3.0000    2.3958    0.0000 C   0  0  0  0  0  0  0  0  0  0  0  0
    5.4375    3.2083    0.0000 N   0  0  0  0  0  0  0  0  0  0  0  0
    4.3292    3.7083    0.0000 C   0  0  0  0  0  0  0  0  0  0  0  0
    5.0625    3.8583    0.0000 C   0  0  0  0  0  0  0  0  0  0  0  0
    6.1792    3.1250    0.0000 C   0  0  0  0  0  0  0  0  0  0  0  0
    2.6250    0.4458    0.0000 O   0  0  0  0  0  0  0  0  0  0  0  0
    2.6250    3.0458    0.0000 O   0  0  0  0  0  0  0  0  0  0  0  0
    1.8750    1.7458    0.0000 C   0  0  0  0  0  0  0  0  0  0  0  0
    4.1250    0.4458    0.0000 C   0  0  0  0  0  0  0  0  0  0  0  0
    1.5000    2.3958    0.0000 C   0  0  0  0  0  0  0  0  0  0  0  0
    6.4875    2.4458    0.0000 C   0  0  0  0  0  0  0  0  0  0  0  0
    6.6250    3.7333    0.0000 C   0  0  0  0  0  0  0  0  0  0  0  0
    0.7500    2.3958    0.0000 C   0  0  0  0  0  0  0  0  0  0  0  0
    7.6750    2.9708    0.0000 C   0  0  0  0  0  0  0  0  0  0  0  0
    5.3667    4.5292    0.0000 C   0  0  0  0  0  0  0  0  0  0  0  0
    7.2292    2.3625    0.0000 C   0  0  0  0  0  0  0  0  0  0  0  0
    7.3667    3.6583    0.0000 C   0  0  0  0  0  0  0  0  0  0  0  0
    8.4167    2.8958    0.0000 F   0  0  0  0  0  0  0  0  0  0  0  0
    0.3750    3.0458    0.0000 C   0  0  0  0  0  0  0  0  0  0  0  0
  2  1  2  0  0  0  0
  3  4  1  0  0  0  0
  3  5  2  0  0  0  0
  4  1  1  0  0  0  0
  5  2  1  0  0  0  0
  6  2  1  0  0  0  0
  6  8  1  0  0  0  0
  7  9  1  0  0  0  0
  8  7  1  0  0  0  0
  9  1  1  0  0  0  0
 10  3  1  0  0  0  0
 10 12  1  0  0  0  0
 11  4  1  0  0  0  0
 12 11  2  0  0  0  0
 13 10  1  0  0  0  0
 14  8  2  0  0  0  0
 15  9  2  0  0  0  0
 16  7  1  0  0  0  0
 17  6  1  0  0  0  0
 18 16  1  0  0  0  0
 19 13  1  0  0  0  0
 20 13  2  0  0  0  0
 21 18  2  0  0  0  0
 22 25  2  0  0  0  0
 23 12  1  0  0  0  0
 24 19  2  0  0  0  0
 24 22  1  0  0  0  0
 25 20  1  0  0  0  0
 26 22  1  0  0  0  0
 27 21  1  0  0  0  0
M  END
>  <ID>
9116036

>  <Supplier>
ChemBridge

>  <clogP>
3.758000000000000e+000

>  <RB>
3

>  <tPSA>
6.622999999999996e+001

>  <Hacc>
3

>  <Hdon>
0

>  <LogSw>
-5.259000000000000e+000

>  <Group>
2

>  <Core>
131

$$$$
9116035
 OpenBabel03312015312D

 23 24  0  0  0  0  0  0  0  0999 V2000
    6.4750    1.3458    0.0000 S   0  0  0  0  0  0  0  0  0  0  0  0
    5.7250    1.3458    0.0000 N   0  0  0  0  0  0  0  0  0  0  0  0
    3.4750    1.3458    0.0000 C   0  0  0  0  0  0  0  0  0  0  0  0
    3.1000    1.9958    0.0000 N   0  0  0  0  0  0  0  0  0  0  0  0
    6.6667    2.0708    0.0000 N   0  0  0  0  0  0  0  0  0  0  0  0
    2.3500    1.9958    0.0000 C   0  0  0  0  0  0  0  0  0  0  0  0
    6.4042    0.5958    0.0000 O   0  0  0  0  0  0  0  0  0  0  0  0
    7.2125    1.2125    0.0000 O   0  0  0  0  0  0  0  0  0  0  0  0
    1.9750    2.6458    0.0000 C   0  0  0  0  0  0  0  0  0  0  0  0
    4.2250    1.3458    0.0000 C   0  0  0  0  0  0  0  0  0  0  0  0
    5.3500    0.6958    0.0000 C   0  0  0  0  0  0  0  0  0  0  0  0
    5.3500    1.9958    0.0000 C   0  0  0  0  0  0  0  0  0  0  0  0
    3.1000    0.6958    0.0000 O   0  0  0  0  0  0  0  0  0  0  0  0
    1.2250    2.6458    0.0000 C   0  0  0  0  0  0  0  0  0  0  0  0
    1.9750    1.3458    0.0000 C   0  0  0  0  0  0  0  0  0  0  0  0
    4.6000    0.6958    0.0000 C   0  0  0  0  0  0  0  0  0  0  0  0
    4.6000    1.9958    0.0000 C   0  0  0  0  0  0  0  0  0  0  0  0
    0.8500    1.9958    0.0000 C   0  0  0  0  0  0  0  0  0  0  0  0
    1.2250    1.3458    0.0000 C   0  0  0  0  0  0  0  0  0  0  0  0
    0.1000    1.9958    0.0000 Cl  0  0  0  0  0  0  0  0  0  0  0  0
    7.3917    2.2708    0.0000 C   0  0  0  0  0  0  0  0  0  0  0  0
    6.1375    2.6000    0.0000 C   0  0  0  0  0  0  0  0  0  0  0  0
    2.3500    3.2958    0.0000 C   0  0  0  0  0  0  0  0  0  0  0  0
  2  1  1  0  0  0  0
  3 10  1  0  0  0  0
  4  3  1  0  0  0  0
  5  1  1  0  0  0  0
  6  4  1  0  0  0  0
  7  1  2  0  0  0  0
  8  1  2  0  0  0  0
  9  6  1  0  0  0  0
 10 17  1  0  0  0  0
 11  2  1  0  0  0  0
 12  2  1  0  0  0  0
 13  3  2  0  0  0  0
 14  9  2  0  0  0  0
 15  6  2  0  0  0  0
 16 11  1  0  0  0  0
 16 10  1  0  0  0  0
 17 12  1  0  0  0  0
 18 19  2  0  0  0  0
 18 14  1  0  0  0  0
 19 15  1  0  0  0  0
 20 18  1  0  0  0  0
 21  5  1  0  0  0  0
 22  5  1  0  0  0  0
 23  9  1  0  0  0  0
M  END
>  <ID>
9116035

>  <Supplier>
ChemBridge

>  <clogP>
9.450000000000005e-001

>  <RB>
2

>  <tPSA>
6.972000000000000e+001

>  <Hacc>
5

>  <Hdon>
1

>  <LogSw>
-2.631000000000000e+000

>  <Group>
2

>  <Core>
050

$$$$
6167262
 OpenBabel03312015312D

 22 23  0  0  0  0  0  0  0  0999 V2000
    0.9292    0.0000    0.0000 C   0  0  0  0  0  0  0  0  0  0  0  0
    0.0000    0.0000    0.0000 N   0  0  0  0  0  0  0  0  0  0  0  0
    1.8667   -0.3792    0.0000 C   0  0  3  0  0  0  0  0  0  0  0  0
   -0.1708    1.0208    0.0000 C   0  0  0  0  0  0  0  0  0  0  0  0
    1.1500    0.8125    0.0000 O   0  0  0  0  0  0  0  0  0  0  0  0
    2.1792   -1.2375    0.0000 C   0  0  0  0  0  0  0  0  0  0  0  0
   -0.9833   -0.3875    0.0000 C   0  0  0  0  0  0  0  0  0  0  0  0
   -0.9833    1.4958    0.0000 C   0  0  0  0  0  0  0  0  0  0  0  0
    2.4667    0.3458    0.0000 C   0  0  0  0  0  0  0  0  0  0  0  0
    3.0667   -1.4000    0.0000 C   0  0  0  0  0  0  0  0  0  0  0  0
    1.5792   -1.9542    0.0000 C   0  0  0  0  0  0  0  0  0  0  0  0
   -1.6500   -0.1375    0.0000 C   0  0  0  0  0  0  0  0  0  0  0  0
   -0.9833   -1.3167    0.0000 C   0  0  0  0  0  0  0  0  0  0  0  0
   -0.9833    2.4333    0.0000 C   0  0  0  0  0  0  0  0  0  0  0  0
   -1.7958    1.0208    0.0000 C   0  0  0  0  0  0  0  0  0  0  0  0
    3.3875    0.1625    0.0000 C   0  0  0  0  0  0  0  0  0  0  0  0
    3.4000   -2.3000    0.0000 C   0  0  0  0  0  0  0  0  0  0  0  0
    1.8875   -2.8667    0.0000 C   0  0  0  0  0  0  0  0  0  0  0  0
   -1.7958    2.9000    0.0000 C   0  0  0  0  0  0  0  0  0  0  0  0
   -2.6000    1.4958    0.0000 C   0  0  0  0  0  0  0  0  0  0  0  0
   -2.6000    2.4333    0.0000 C   0  0  0  0  0  0  0  0  0  0  0  0
    2.8167   -3.0375    0.0000 C   0  0  0  0  0  0  0  0  0  0  0  0
  2  1  1  0  0  0  0
  3  1  1  0  0  0  0
  4  2  1  0  0  0  0
  5  1  2  0  0  0  0
  6  3  1  0  0  0  0
  7  2  1  0  0  0  0
  8  4  1  0  0  0  0
  9  3  1  0  0  0  0
 10  6  1  0  0  0  0
 11  6  2  0  0  0  0
 12  7  1  0  0  0  0
 13  7  1  0  0  0  0
 14  8  2  0  0  0  0
 15  8  1  0  0  0  0
 16  9  1  0  0  0  0
 17 10  2  0  0  0  0
 17 22  1  0  0  0  0
 18 11  1  0  0  0  0
 19 14  1  0  0  0  0
 19 21  2  0  0  0  0
 20 15  2  0  0  0  0
 21 20  1  0  0  0  0
 22 18  2  0  0  0  0
M  END
>  <ID>
6167262

>  <Supplier>
ChemBridge

>  <clogP>
4.210000000000000e+000

>  <RB>
4

>  <tPSA>
2.031000000000000e+001

>  <Hacc>
1

>  <Hdon>
0

>  <LogSw>
-4.950000000000000e+000

>  <Group>
2

$$$$
6143574
 OpenBabel03312015312D

 23 24  0  0  0  0  0  0  0  0999 V2000
   -0.5000    1.3250    0.0000 N   0  0  0  0  0  0  0  0  0  0  0  0
   -0.0458    0.7750    0.0000 C   0  0  0  0  0  0  0  0  0  0  0  0
   -0.2333    1.9875    0.0000 C   0  0  0  0  0  0  0  0  0  0  0  0
   -1.1958   -0.6042    0.0000 C   0  0  0  0  0  0  0  0  0  0  0  0
   -0.4958   -0.4500    0.0000 N   0  0  0  0  0  0  0  0  0  0  0  0
   -1.3708   -1.2667    0.0000 C   0  0  0  0  0  0  0  0  0  0  0  0
    0.6417    0.8833    0.0000 S   0  0  0  0  0  0  0  0  0  0  0  0
    0.4667    2.1000    0.0000 C   0  0  0  0  0  0  0  0  0  0  0  0
   -1.6708   -0.1042    0.0000 C   0  0  0  0  0  0  0  0  0  0  0  0
   -0.6833    2.5500    0.0000 O   0  0  0  0  0  0  0  0  0  0  0  0
    0.9250    1.5500    0.0000 C   0  0  0  0  0  0  0  0  0  0  0  0
    0.7250    2.7708    0.0000 C   0  0  0  0  0  0  0  0  0  0  0  0
   -2.3333   -0.2875    0.0000 C   0  0  0  0  0  0  0  0  0  0  0  0
   -2.0333   -1.4500    0.0000 C   0  0  0  0  0  0  0  0  0  0  0  0
    1.8750    2.3333    0.0000 C   0  0  0  0  0  0  0  0  0  0  0  0
   -2.5125   -0.9667    0.0000 C   0  0  0  0  0  0  0  0  0  0  0  0
    1.4292    2.8833    0.0000 C   0  0  0  0  0  0  0  0  0  0  0  0
    1.6167    1.6583    0.0000 C   0  0  0  0  0  0  0  0  0  0  0  0
    2.5917    2.4458    0.0000 Cl  0  0  0  0  0  0  0  0  0  0  0  0
   -1.5125    0.5958    0.0000 O   0  0  0  0  0  0  0  0  0  0  0  0
   -2.2333   -2.1042    0.0000 O   0  0  0  0  0  0  0  0  0  0  0  0
   -0.8500    0.8125    0.0000 C   0  0  0  0  0  0  0  0  0  0  0  0
   -1.7500   -2.6042    0.0000 C   0  0  0  0  0  0  0  0  0  0  0  0
  2  1  1  0  0  0  0
  3  1  1  0  0  0  0
  4  5  1  0  0  0  0
  5  2  1  0  0  0  0
  6  4  1  0  0  0  0
  7  2  2  0  0  0  0
  8  3  1  0  0  0  0
  9  4  2  0  0  0  0
 10  3  2  0  0  0  0
 11  8  1  0  0  0  0
 12  8  2  0  0  0  0
 13  9  1  0  0  0  0
 14  6  2  0  0  0  0
 15 17  2  0  0  0  0
 15 18  1  0  0  0  0
 16 13  2  0  0  0  0
 16 14  1  0  0  0  0
 17 12  1  0  0  0  0
 18 11  2  0  0  0  0
 19 15  1  0  0  0  0
 20  9  1  0  0  0  0
 21 14  1  0  0  0  0
 22 20  1  0  0  0  0
 23 21  1  0  0  0  0
M  END
>  <ID>
6143574

>  <Supplier>
ChemBridge

>  <clogP>
3.430000000000000e+000

>  <RB>
2

>  <tPSA>
5.959000000000000e+001

>  <Hacc>
3

>  <Hdon>
2

>  <LogSw>
-4.686999999999999e+000

>  <Group>
2

>  <Core>
071

$$$$
5131713
 OpenBabel03312015312D

 25 28  0  0  0  0  0  0  0  0999 V2000
   -2.2833    0.6000    0.0000 C   0  0  0  0  0  0  0  0  0  0  0  0
   -1.1333    0.7958    0.0000 C   0  0  3  0  0  0  0  0  0  0  0  0
   -1.8625    1.6625    0.0000 C   0  0  0  0  0  0  0  0  0  0  0  0
   -0.0333    0.3833    0.0000 C   0  0  0  0  0  0  0  0  0  0  0  0
    0.8542    1.1625    0.0000 N   0  0  0  0  0  0  0  0  0  0  0  0
   -3.2708    1.1625    0.0000 C   0  0  0  0  0  0  0  0  0  0  0  0
   -2.2833   -0.5667    0.0000 C   0  0  0  0  0  0  0  0  0  0  0  0
    0.1875   -0.7667    0.0000 O   0  0  0  0  0  0  0  0  0  0  0  0
    1.9542    0.7833    0.0000 C   0  0  0  0  0  0  0  0  0  0  0  0
    4.1500    0.0000    0.0000 C   0  0  0  0  0  0  0  0  0  0  0  0
    2.8375    1.5458    0.0000 C   0  0  0  0  0  0  0  0  0  0  0  0
    2.1667   -0.3542    0.0000 C   0  0  0  0  0  0  0  0  0  0  0  0
    3.9375    1.1458    0.0000 C   0  0  0  0  0  0  0  0  0  0  0  0
    3.2542   -0.7542    0.0000 C   0  0  0  0  0  0  0  0  0  0  0  0
   -4.2708    0.6000    0.0000 C   0  0  0  0  0  0  0  0  0  0  0  0
   -1.2625   -1.1542    0.0000 C   0  0  0  0  0  0  0  0  0  0  0  0
   -3.2708   -1.1542    0.0000 C   0  0  0  0  0  0  0  0  0  0  0  0
   -3.2708    2.3333    0.0000 C   0  0  0  0  0  0  0  0  0  0  0  0
    5.2375   -0.3792    0.0000 C   0  0  0  0  0  0  0  0  0  0  0  0
   -1.2625   -2.3042    0.0000 C   0  0  0  0  0  0  0  0  0  0  0  0
   -3.2708   -2.3042    0.0000 C   0  0  0  0  0  0  0  0  0  0  0  0
   -4.2708    2.8958    0.0000 C   0  0  0  0  0  0  0  0  0  0  0  0
   -5.2708    1.1625    0.0000 C   0  0  0  0  0  0  0  0  0  0  0  0
   -5.2708    2.3333    0.0000 C   0  0  0  0  0  0  0  0  0  0  0  0
   -2.2833   -2.8875    0.0000 C   0  0  0  0  0  0  0  0  0  0  0  0
  2  1  1  0  0  0  0
  3  1  1  0  0  0  0
  3  2  1  0  0  0  0
  4  2  1  0  0  0  0
  5  4  1  0  0  0  0
  6  1  1  0  0  0  0
  7  1  1  0  0  0  0
  8  4  2  0  0  0  0
  9  5  1  0  0  0  0
 10 14  1  0  0  0  0
 11  9  2  0  0  0  0
 12  9  1  0  0  0  0
 13 11  1  0  0  0  0
 13 10  2  0  0  0  0
 14 12  2  0  0  0  0
 15  6  1  0  0  0  0
 16  7  1  0  0  0  0
 17  7  2  0  0  0  0
 18  6  2  0  0  0  0
 19 10  1  0  0  0  0
 20 16  2  0  0  0  0
 20 25  1  0  0  0  0
 21 17  1  0  0  0  0
 22 18  1  0  0  0  0
 23 15  2  0  0  0  0
 23 24  1  0  0  0  0
 24 22  2  0  0  0  0
 25 21  2  0  0  0  0
M  END
>  <ID>
5131713

>  <Supplier>
ChemBridge

>  <clogP>
5.130000000000000e+000

>  <RB>
4

>  <tPSA>
2.910000000000000e+001

>  <Hacc>
1

>  <Hdon>
1

>  <LogSw>
-5.969000000000000e+000

>  <Group>
2

>  <Core>
487

$$$$
6432355
 OpenBabel03312015312D

 32 35  0  0  0  0  0  0  0  0999 V2000
    0.1042    0.7500    0.0000 N   0  0  0  0  0  0  0  0  0  0  0  0
   -0.2708    0.0458    0.0000 C   0  0  0  0  0  0  0  0  0  0  0  0
   -0.4708    1.3333    0.0000 C   0  0  0  0  0  0  0  0  0  0  0  0
   -1.2000    0.9500    0.0000 C   0  0  0  0  0  0  0  0  0  0  0  0
   -1.0625    0.1500    0.0000 S   0  0  0  0  0  0  0  0  0  0  0  0
    4.7667   -0.8000    0.0000 C   0  0  0  0  0  0  0  0  0  0  0  0
   -1.9125    1.3958    0.0000 C   0  0  0  0  0  0  0  0  0  0  0  0
    3.9500   -0.8875    0.0000 C   0  0  0  0  0  0  0  0  0  0  0  0
    5.1000   -0.0667    0.0000 C   0  0  0  0  0  0  0  0  0  0  0  0
    3.4875   -0.2292    0.0000 N   0  0  0  0  0  0  0  0  0  0  0  0
    0.1042   -0.6875    0.0000 S   0  0  0  0  0  0  0  0  0  0  0  0
   -4.0458    1.0125    0.0000 C   0  0  0  0  0  0  0  0  0  0  0  0
    2.6875   -0.3167    0.0000 C   0  0  0  0  0  0  0  0  0  0  0  0
   -4.0458    0.1958    0.0000 C   0  0  0  0  0  0  0  0  0  0  0  0
   -4.8208    1.2625    0.0000 O   0  0  0  0  0  0  0  0  0  0  0  0
   -0.3333    2.1208    0.0000 O   0  0  0  0  0  0  0  0  0  0  0  0
   -2.6458    0.9958    0.0000 C   0  0  0  0  0  0  0  0  0  0  0  0
   -4.8208   -0.0500    0.0000 O   0  0  0  0  0  0  0  0  0  0  0  0
   -5.2708    0.5958    0.0000 C   0  0  0  0  0  0  0  0  0  0  0  0
   -3.3500    1.4125    0.0000 C   0  0  0  0  0  0  0  0  0  0  0  0
    4.6500    0.6000    0.0000 O   0  0  0  0  0  0  0  0  0  0  0  0
    2.3500   -1.0667    0.0000 O   0  0  0  0  0  0  0  0  0  0  0  0
    0.9042    0.8833    0.0000 C   0  0  0  0  0  0  0  0  0  0  0  0
   -3.3500   -0.2042    0.0000 C   0  0  0  0  0  0  0  0  0  0  0  0
    5.9000    0.0333    0.0000 O   0  0  0  0  0  0  0  0  0  0  0  0
   -2.6458    0.2208    0.0000 C   0  0  0  0  0  0  0  0  0  0  0  0
    5.2375   -1.4667    0.0000 C   0  0  0  0  0  0  0  0  0  0  0  0
    1.4167    0.2458    0.0000 C   0  0  0  0  0  0  0  0  0  0  0  0
    3.6167   -1.6500    0.0000 C   0  0  0  0  0  0  0  0  0  0  0  0
    2.2167    0.3333    0.0000 C   0  0  0  0  0  0  0  0  0  0  0  0
    4.9042   -2.1792    0.0000 C   0  0  0  0  0  0  0  0  0  0  0  0
    4.1042   -2.2875    0.0000 C   0  0  0  0  0  0  0  0  0  0  0  0
  2  1  1  0  0  0  0
  3  1  1  0  0  0  0
  4  3  1  0  0  0  0
  5  2  1  0  0  0  0
  5  4  1  0  0  0  0
  6  8  1  0  0  0  0
  7  4  2  0  0  0  0
  8 10  1  0  0  0  0
  9  6  1  0  0  0  0
 10 13  1  0  0  0  0
 11  2  2  0  0  0  0
 12 20  1  0  0  0  0
 12 14  2  0  0  0  0
 13 30  1  0  0  0  0
 14 24  1  0  0  0  0
 15 12  1  0  0  0  0
 16  3  2  0  0  0  0
 17  7  1  0  0  0  0
 18 14  1  0  0  0  0
 18 19  1  0  0  0  0
 19 15  1  0  0  0  0
 20 17  2  0  0  0  0
 21  9  2  0  0  0  0
 22 13  2  0  0  0  0
 23  1  1  0  0  0  0
 24 26  2  0  0  0  0
 25  9  1  0  0  0  0
 26 17  1  0  0  0  0
 27  6  2  0  0  0  0
 27 31  1  0  0  0  0
 28 23  1  0  0  0  0
 29  8  2  0  0  0  0
 30 28  1  0  0  0  0
 31 32  2  0  0  0  0
 32 29  1  0  0  0  0
M  END
>  <ID>
6432355

>  <Supplier>
ChemBridge

>  <clogP>
3.710000000000000e+000

>  <RB>
7

>  <tPSA>
1.051700000000000e+002

>  <Hacc>
6

>  <Hdon>
2

>  <LogSw>
-5.798000000000000e+000

>  <Group>
3

>  <Core>
001

$$$$
9116039
 OpenBabel03312015312D

 20 22  0  0  0  0  0  0  0  0999 V2000
    2.0375    2.2833    0.0000 C   0  0  0  0  0  0  0  0  0  0  0  0
    1.3542    2.5875    0.0000 S   0  0  0  0  0  0  0  0  0  0  0  0
    1.9542    1.5375    0.0000 C   0  0  0  0  0  0  0  0  0  0  0  0
    1.2250    1.3833    0.0000 C   0  0  0  0  0  0  0  0  0  0  0  0
    0.8500    2.0333    0.0000 C   0  0  0  0  0  0  0  0  0  0  0  0
    2.6875    2.6583    0.0000 C   0  0  0  0  0  0  0  0  0  0  0  0
    3.3375    2.2833    0.0000 N   0  0  0  0  0  0  0  0  0  0  0  0
    0.1000    2.0333    0.0000 N   0  0  0  0  0  0  0  0  0  0  0  0
    2.6875    3.4083    0.0000 O   0  0  0  0  0  0  0  0  0  0  0  0
    3.9875    2.6583    0.0000 C   0  0  0  0  0  0  0  0  0  0  0  0
    2.5167    1.0333    0.0000 N   0  0  0  0  0  0  0  0  0  0  0  0
    4.6375    2.2833    0.0000 C   0  0  0  0  0  0  0  0  0  0  0  0
    5.2875    2.6583    0.0000 C   0  0  0  0  0  0  0  0  0  0  0  0
    0.8500    0.7333    0.0000 C   0  0  0  0  0  0  0  0  0  0  0  0
    5.9292    2.2833    0.0000 F   0  0  0  0  0  0  0  0  0  0  0  0
    4.6375    3.7833    0.0000 C   0  0  0  0  0  0  0  0  0  0  0  0
   -0.2750    1.3833    0.0000 C   0  0  0  0  0  0  0  0  0  0  0  0
    3.9875    3.4083    0.0000 C   0  0  0  0  0  0  0  0  0  0  0  0
    5.2875    3.4083    0.0000 C   0  0  0  0  0  0  0  0  0  0  0  0
    0.1000    0.7333    0.0000 C   0  0  0  0  0  0  0  0  0  0  0  0
  2  1  1  0  0  0  0
  3  1  2  0  0  0  0
  4  3  1  0  0  0  0
  5  2  1  0  0  0  0
  5  4  1  0  0  0  0
  6  1  1  0  0  0  0
  7  6  1  0  0  0  0
  8  5  2  0  0  0  0
  9  6  2  0  0  0  0
 10  7  1  0  0  0  0
 11  3  1  0  0  0  0
 12 10  2  0  0  0  0
 13 12  1  0  0  0  0
 14  4  2  0  0  0  0
 15 13  1  0  0  0  0
 16 18  2  0  0  0  0
 17  8  1  0  0  0  0
 17 20  2  0  0  0  0
 18 10  1  0  0  0  0
 19 16  1  0  0  0  0
 19 13  2  0  0  0  0
 20 14  1  0  0  0  0
M  END
>  <ID>
9116039

>  <Supplier>
ChemBridge

>  <clogP>
3.244000000000000e+000

>  <RB>
2

>  <tPSA>
6.801000000000001e+001

>  <Hacc>
2

>  <Hdon>
2

>  <LogSw>
-3.220000000000000e+000

>  <Group>
2

>  <Core>
274

$$$$
7322838
 OpenBabel03312015312D

 31 34  0  0  0  0  0  0  0  0999 V2000
   -0.3375   -2.0625    0.0000 C   0  0  0  0  0  0  0  0  0  0  0  0
   -0.0250   -2.9667    0.0000 N   0  0  0  0  0  0  0  0  0  0  0  0
    0.2542   -2.0542    0.0000 C   0  0  0  0  0  0  0  0  0  0  0  0
    0.4417   -2.6042    0.0000 C   0  0  0  0  0  0  0  0  0  0  0  0
   -0.5083   -2.6250    0.0000 C   0  0  3  0  0  0  0  0  0  0  0  0
   -2.7375   -3.3792    0.0000 N   0  3  0  0  0  0  0  0  0  0  0  0
   -0.5375   -1.5667    0.0000 C   0  0  0  0  0  0  0  0  0  0  0  0
   -0.0125   -3.5625    0.0000 C   0  0  0  0  0  0  0  0  0  0  0  0
   -2.1833   -3.1917    0.0000 C   0  0  0  0  0  0  0  0  0  0  0  0
   -1.0708   -2.8167    0.0000 C   0  0  0  0  0  0  0  0  0  0  0  0
   -3.1750   -2.9917    0.0000 O   0  5  0  0  0  0  0  0  0  0  0  0
    1.0125   -2.7792    0.0000 O   0  0  0  0  0  0  0  0  0  0  0  0
   -0.4625   -1.0417    0.0000 C   0  0  0  0  0  0  0  0  0  0  0  0
   -2.8583   -3.9542    0.0000 O   0  0  0  0  0  0  0  0  0  0  0  0
   -1.0708   -1.6292    0.0000 O   0  0  0  0  0  0  0  0  0  0  0  0
    0.6000   -1.5667    0.0000 O   0  0  0  0  0  0  0  0  0  0  0  0
    0.5792   -4.4375    0.0000 O   0  0  0  0  0  0  0  0  0  0  0  0
   -1.7458   -3.5792    0.0000 C   0  0  0  0  0  0  0  0  0  0  0  0
   -2.0625   -2.6167    0.0000 C   0  0  0  0  0  0  0  0  0  0  0  0
   -1.1833   -3.3917    0.0000 C   0  0  0  0  0  0  0  0  0  0  0  0
   -1.5083   -2.4250    0.0000 C   0  0  0  0  0  0  0  0  0  0  0  0
    0.1250   -0.9750    0.0000 C   0  0  0  0  0  0  0  0  0  0  0  0
   -0.8208   -0.5667    0.0000 C   0  0  0  0  0  0  0  0  0  0  0  0
    0.5042   -3.8500    0.0000 C   0  0  3  0  0  0  0  0  0  0  0  0
    0.0042    0.0458    0.0000 C   0  0  0  0  0  0  0  0  0  0  0  0
    0.3542   -0.4292    0.0000 C   0  0  0  0  0  0  0  0  0  0  0  0
   -0.5833   -0.0292    0.0000 C   0  0  0  0  0  0  0  0  0  0  0  0
    0.2417    0.5875    0.0000 Cl  0  0  0  0  0  0  0  0  0  0  0  0
    1.1625   -4.5500    0.0000 C   0  0  0  0  0  0  0  0  0  0  0  0
    1.0417   -3.5917    0.0000 C   0  0  0  0  0  0  0  0  0  0  0  0
    1.4500   -4.0292    0.0000 C   0  0  0  0  0  0  0  0  0  0  0  0
  2  5  1  0  0  0  0
  2  4  1  0  0  0  0
  3  1  2  0  0  0  0
  4  3  1  0  0  0  0
  5  1  1  0  0  0  0
  6  9  1  0  0  0  0
  7  1  1  0  0  0  0
  8  2  1  0  0  0  0
  9 19  2  0  0  0  0
 10  5  1  0  0  0  0
 11  6  1  0  0  0  0
 12  4  2  0  0  0  0
 13  7  1  0  0  0  0
 14  6  2  0  0  0  0
 15  7  2  0  0  0  0
 16  3  1  0  0  0  0
 17 24  1  0  0  0  0
 18 20  2  0  0  0  0
 18  9  1  0  0  0  0
 19 21  1  0  0  0  0
 20 10  1  0  0  0  0
 21 10  2  0  0  0  0
 22 13  1  0  0  0  0
 23 13  2  0  0  0  0
 24  8  1  0  0  0  0
 25 27  2  0  0  0  0
 25 26  1  0  0  0  0
 26 22  2  0  0  0  0
 27 23  1  0  0  0  0
 28 25  1  0  0  0  0
 29 17  1  0  0  0  0
 29 31  1  0  0  0  0
 30 24  1  0  0  0  0
 31 30  1  0  0  0  0
M  CHG  2   6   1  11  -1
M  END
>  <ID>
7322838

>  <Supplier>
ChemBridge

>  <clogP>
4.153000000000000e+000

>  <RB>
5

>  <tPSA>
1.099800000000000e+002

>  <Hacc>
6

>  <Hdon>
1

>  <LogSw>
-6.364999999999998e+000

>  <Group>
1

>  <Core>
095

$$$$
9020823
 OpenBabel03312015312D

 22 23  0  0  0  0  0  0  0  0999 V2000
    4.2417    2.1583    0.0000 N   0  0  0  0  0  0  0  0  0  0  0  0
    5.5417    2.1583    0.0000 C   0  0  0  0  0  0  0  0  0  0  0  0
    4.8917    1.7833    0.0000 C   0  0  3  0  0  0  0  0  0  0  0  0
    3.5917    1.7833    0.0000 C   0  0  0  0  0  0  0  0  0  0  0  0
    5.5417    2.9083    0.0000 C   0  0  0  0  0  0  0  0  0  0  0  0
    6.1917    1.7833    0.0000 C   0  0  0  0  0  0  0  0  0  0  0  0
    4.2417    2.9083    0.0000 C   0  0  0  0  0  0  0  0  0  0  0  0
    6.8417    2.1583    0.0000 C   0  0  0  0  0  0  0  0  0  0  0  0
    6.1917    3.2833    0.0000 C   0  0  0  0  0  0  0  0  0  0  0  0
    6.8417    2.9083    0.0000 C   0  0  0  0  0  0  0  0  0  0  0  0
    1.6500    2.1583    0.0000 C   0  0  0  0  0  0  0  0  0  0  0  0
    4.8917    3.2833    0.0000 C   0  0  0  0  0  0  0  0  0  0  0  0
    3.5917    1.0333    0.0000 O   0  0  0  0  0  0  0  0  0  0  0  0
    2.9500    2.1583    0.0000 C   0  0  0  0  0  0  0  0  0  0  0  0
    1.0000    1.7833    0.0000 O   0  0  0  0  0  0  0  0  0  0  0  0
    2.3000    1.7833    0.0000 C   0  0  0  0  0  0  0  0  0  0  0  0
    1.6500    2.9083    0.0000 O   0  0  0  0  0  0  0  0  0  0  0  0
    7.4917    1.7833    0.0000 O   0  0  0  0  0  0  0  0  0  0  0  0
    7.4917    3.2833    0.0000 O   0  0  0  0  0  0  0  0  0  0  0  0
    4.8917    1.0333    0.0000 C   0  0  0  0  0  0  0  0  0  0  0  0
    7.4917    4.0250    0.0000 C   0  0  0  0  0  0  0  0  0  0  0  0
    7.4917    1.0333    0.0000 C   0  0  0  0  0  0  0  0  0  0  0  0
  2  3  1  0  0  0  0
  3  1  1  0  0  0  0
  4  1  1  0  0  0  0
  5 12  1  0  0  0  0
  5  2  1  0  0  0  0
  6  2  2  0  0  0  0
  7  1  1  0  0  0  0
  8  6  1  0  0  0  0
  9  5  2  0  0  0  0
 10  9  1  0  0  0  0
 10  8  2  0  0  0  0
 11 16  1  0  0  0  0
 12  7  1  0  0  0  0
 13  4  2  0  0  0  0
 14  4  1  0  0  0  0
 15 11  2  0  0  0  0
 16 14  1  0  0  0  0
 17 11  1  0  0  0  0
 18  8  1  0  0  0  0
 19 10  1  0  0  0  0
 20  3  1  0  0  0  0
 21 19  1  0  0  0  0
 22 18  1  0  0  0  0
M  END
>  <ID>
9020823

>  <Supplier>
ChemBridge

>  <clogP>
1.144000000000000e+000

>  <RB>
3

>  <tPSA>
7.606999999999998e+001

>  <Hacc>
5

>  <Hdon>
1

>  <LogSw>
-2.418000000000000e+000

>  <Group>
3

$$$$
7322834
 OpenBabel03312015312D

 21 22  0  0  0  0  0  0  0  0999 V2000
    3.2667   -4.9417    0.0000 C   0  0  0  0  0  0  0  0  0  0  0  0
    2.5542   -4.5250    0.0000 C   0  0  0  0  0  0  0  0  0  0  0  0
    3.9792   -4.5292    0.0000 C   0  0  0  0  0  0  0  0  0  0  0  0
    2.5542   -3.6917    0.0000 N   0  0  0  0  0  0  0  0  0  0  0  0
    1.8375   -3.2792    0.0000 C   0  0  0  0  0  0  0  0  0  0  0  0
    3.2667   -5.7792    0.0000 C   0  0  0  0  0  0  0  0  0  0  0  0
    3.9875   -3.7042    0.0000 O   0  0  0  0  0  0  0  0  0  0  0  0
    1.8417   -4.9417    0.0000 C   0  0  0  0  0  0  0  0  0  0  0  0
    1.1292   -3.6917    0.0000 O   0  0  0  0  0  0  0  0  0  0  0  0
    2.5542   -6.1917    0.0000 C   0  0  0  0  0  0  0  0  0  0  0  0
    4.6917   -4.9500    0.0000 O   0  0  0  0  0  0  0  0  0  0  0  0
    1.8292   -2.4542    0.0000 C   0  0  0  0  0  0  0  0  0  0  0  0
    1.8417   -5.7792    0.0000 C   0  0  0  0  0  0  0  0  0  0  0  0
    1.1167   -2.0417    0.0000 C   0  0  0  0  0  0  0  0  0  0  0  0
    2.5542   -7.0167    0.0000 O   0  0  0  0  0  0  0  0  0  0  0  0
    1.1125   -1.2167    0.0000 C   0  0  0  0  0  0  0  0  0  0  0  0
    1.8250   -0.8042    0.0000 C   0  0  0  0  0  0  0  0  0  0  0  0
    0.3917   -0.8125    0.0000 C   0  0  0  0  0  0  0  0  0  0  0  0
    0.3917    0.0208    0.0000 C   0  0  0  0  0  0  0  0  0  0  0  0
    1.8250    0.0208    0.0000 C   0  0  0  0  0  0  0  0  0  0  0  0
    1.1042    0.4333    0.0000 C   0  0  0  0  0  0  0  0  0  0  0  0
  2  1  2  0  0  0  0
  3  1  1  0  0  0  0
  4  2  1  0  0  0  0
  5  4  1  0  0  0  0
  6  1  1  0  0  0  0
  7  3  2  0  0  0  0
  8  2  1  0  0  0  0
  8 13  2  0  0  0  0
  9  5  2  0  0  0  0
 10  6  2  0  0  0  0
 11  3  1  0  0  0  0
 12  5  1  0  0  0  0
 13 10  1  0  0  0  0
 14 12  1  0  0  0  0
 15 10  1  0  0  0  0
 16 14  1  0  0  0  0
 17 16  1  0  0  0  0
 18 16  1  0  0  0  0
 19 18  1  0  0  0  0
 20 17  1  0  0  0  0
 20 21  1  0  0  0  0
 21 19  1  0  0  0  0
M  END
>  <ID>
7322834

>  <Supplier>
ChemBridge

>  <clogP>
4.474000000000000e+000

>  <RB>
5

>  <tPSA>
8.663000000000000e+001

>  <Hacc>
4

>  <Hdon>
3

>  <LogSw>
-5.146000000000000e+000

>  <Group>
3

>  <Core>
144

$$$$
5962142
 OpenBabel03312015312D

 24 25  0  0  0  0  0  0  0  0999 V2000
   -1.0500   -1.0042    0.0000 C   0  0  0  0  0  0  0  0  0  0  0  0
   -1.0500   -0.0792    0.0000 C   0  0  0  0  0  0  0  0  0  0  0  0
   -0.2458   -1.4792    0.0000 C   0  0  0  0  0  0  0  0  0  0  0  0
    0.5667   -1.0042    0.0000 N   0  0  0  0  0  0  0  0  0  0  0  0
    1.3792   -1.4667    0.0000 C   0  0  0  0  0  0  0  0  0  0  0  0
   -1.8625   -1.4792    0.0000 C   0  0  0  0  0  0  0  0  0  0  0  0
   -0.2458    0.3833    0.0000 O   0  0  0  0  0  0  0  0  0  0  0  0
   -1.8625    0.3958    0.0000 C   0  0  0  0  0  0  0  0  0  0  0  0
    1.3875   -2.4000    0.0000 O   0  0  0  0  0  0  0  0  0  0  0  0
   -0.2458   -2.4167    0.0000 C   0  0  0  0  0  0  0  0  0  0  0  0
    2.1792   -1.0000    0.0000 C   0  0  0  0  0  0  0  0  0  0  0  0
   -1.8625   -2.4167    0.0000 C   0  0  0  0  0  0  0  0  0  0  0  0
    2.1792   -0.0667    0.0000 N   0  0  0  0  0  0  0  0  0  0  0  0
   -1.0500   -2.8875    0.0000 C   0  0  0  0  0  0  0  0  0  0  0  0
   -2.6708   -2.8875    0.0000 Cl  0  0  0  0  0  0  0  0  0  0  0  0
   -1.8625    1.3333    0.0000 C   0  0  0  0  0  0  0  0  0  0  0  0
   -2.6708   -0.0792    0.0000 C   0  0  0  0  0  0  0  0  0  0  0  0
    2.9875    0.4000    0.0000 C   0  0  0  0  0  0  0  0  0  0  0  0
    1.3667    0.4000    0.0000 C   0  0  0  0  0  0  0  0  0  0  0  0
    1.3667    1.3458    0.0000 C   0  0  0  0  0  0  0  0  0  0  0  0
    2.9875    1.3458    0.0000 C   0  0  0  0  0  0  0  0  0  0  0  0
   -3.4833    0.3958    0.0000 C   0  0  0  0  0  0  0  0  0  0  0  0
   -2.6708    1.8000    0.0000 C   0  0  0  0  0  0  0  0  0  0  0  0
   -3.4833    1.3333    0.0000 C   0  0  0  0  0  0  0  0  0  0  0  0
  2  1  1  0  0  0  0
  3  1  1  0  0  0  0
  4  3  1  0  0  0  0
  5  4  1  0  0  0  0
  6  1  2  0  0  0  0
  7  2  2  0  0  0  0
  8  2  1  0  0  0  0
  9  5  2  0  0  0  0
 10  3  2  0  0  0  0
 11  5  1  0  0  0  0
 12  6  1  0  0  0  0
 13 11  1  0  0  0  0
 14 12  2  0  0  0  0
 14 10  1  0  0  0  0
 15 12  1  0  0  0  0
 16  8  2  0  0  0  0
 17  8  1  0  0  0  0
 18 13  1  0  0  0  0
 19 13  1  0  0  0  0
 20 19  1  0  0  0  0
 21 18  1  0  0  0  0
 22 17  2  0  0  0  0
 23 16  1  0  0  0  0
 23 24  2  0  0  0  0
 24 22  1  0  0  0  0
M  END
>  <ID>
5962142

>  <Supplier>
ChemBridge

>  <clogP>
5.000000000000000e+000

>  <RB>
4

>  <tPSA>
4.941000000000002e+001

>  <Hacc>
3

>  <Hdon>
1

>  <LogSw>
-5.984000000000000e+000

>  <Group>
3

$$$$
6799985
 OpenBabel03312015312D

 30 33  0  0  0  0  0  0  0  0999 V2000
    4.2500   -1.3625    0.0000 N   0  0  0  0  0  0  0  0  0  0  0  0
    3.5917   -1.8417    0.0000 C   0  0  0  0  0  0  0  0  0  0  0  0
    4.9042   -1.8417    0.0000 C   0  0  0  0  0  0  0  0  0  0  0  0
    3.8500   -2.6292    0.0000 C   0  0  0  0  0  0  0  0  0  0  0  0
    4.6542   -2.6167    0.0000 C   0  0  0  0  0  0  0  0  0  0  0  0
    3.4667   -3.3417    0.0000 C   0  0  0  0  0  0  0  0  0  0  0  0
    2.6167   -3.3500    0.0000 N   0  0  0  0  0  0  0  0  0  0  0  0
    1.7917   -3.3417    0.0000 C   0  0  0  0  0  0  0  0  0  0  0  0
    4.2500   -0.5375    0.0000 C   0  0  0  0  0  0  0  0  0  0  0  0
    2.8042   -1.5875    0.0000 O   0  0  0  0  0  0  0  0  0  0  0  0
    5.6917   -1.5917    0.0000 O   0  0  0  0  0  0  0  0  0  0  0  0
    1.3792   -4.0792    0.0000 O   0  0  0  0  0  0  0  0  0  0  0  0
    1.7542   -1.8792    0.0000 O   0  0  0  0  0  0  0  0  0  0  0  0
    1.3542   -2.6125    0.0000 C   0  0  0  0  0  0  0  0  0  0  0  0
    5.0667   -3.3167    0.0000 C   0  0  0  0  0  0  0  0  0  0  0  0
    1.3250   -1.1417    0.0000 C   0  0  0  0  0  0  0  0  0  0  0  0
    0.4875    0.3083    0.0000 C   0  0  0  0  0  0  0  0  0  0  0  0
    3.8667   -4.0417    0.0000 C   0  0  0  0  0  0  0  0  0  0  0  0
    0.4792   -1.1625    0.0000 C   0  0  0  0  0  0  0  0  0  0  0  0
    1.7417   -0.4125    0.0000 C   0  0  0  0  0  0  0  0  0  0  0  0
    1.3125    0.3208    0.0000 C   0  0  0  0  0  0  0  0  0  0  0  0
    0.0417   -0.4292    0.0000 C   0  0  0  0  0  0  0  0  0  0  0  0
    0.0750    1.0208    0.0000 O   0  0  0  0  0  0  0  0  0  0  0  0
    4.6667   -4.0292    0.0000 C   0  0  0  0  0  0  0  0  0  0  0  0
    4.9667   -0.1292    0.0000 C   0  0  0  0  0  0  0  0  0  0  0  0
    3.5375   -0.1292    0.0000 C   0  0  0  0  0  0  0  0  0  0  0  0
    0.4875    1.7375    0.0000 C   0  0  0  0  0  0  0  0  0  0  0  0
    4.9667    0.6958    0.0000 C   0  0  0  0  0  0  0  0  0  0  0  0
    3.5375    0.6958    0.0000 C   0  0  0  0  0  0  0  0  0  0  0  0
    4.2542    1.1125    0.0000 C   0  0  0  0  0  0  0  0  0  0  0  0
  2  1  1  0  0  0  0
  3  1  1  0  0  0  0
  4  2  1  0  0  0  0
  5  3  1  0  0  0  0
  5  4  2  0  0  0  0
  6  4  1  0  0  0  0
  7  6  1  0  0  0  0
  8  7  1  0  0  0  0
  9  1  1  0  0  0  0
 10  2  2  0  0  0  0
 11  3  2  0  0  0  0
 12  8  2  0  0  0  0
 13 14  1  0  0  0  0
 14  8  1  0  0  0  0
 15  5  1  0  0  0  0
 16 13  1  0  0  0  0
 17 21  2  0  0  0  0
 17 22  1  0  0  0  0
 18  6  2  0  0  0  0
 19 16  1  0  0  0  0
 20 16  2  0  0  0  0
 21 20  1  0  0  0  0
 22 19  2  0  0  0  0
 23 17  1  0  0  0  0
 24 15  2  0  0  0  0
 24 18  1  0  0  0  0
 25  9  2  0  0  0  0
 26  9  1  0  0  0  0
 27 23  1  0  0  0  0
 28 25  1  0  0  0  0
 29 26  2  0  0  0  0
 30 29  1  0  0  0  0
 30 28  2  0  0  0  0
M  END
>  <ID>
6799985

>  <Supplier>
ChemBridge

>  <clogP>
3.480000000000000e+000

>  <RB>
5

>  <tPSA>
8.494000000000000e+001

>  <Hacc>
5

>  <Hdon>
1

>  <LogSw>
-5.105000000000000e+000

>  <Group>
3

>  <Core>
315

$$$$
7589656
 OpenBabel03312015312D

 25 28  0  0  0  0  0  0  0  0999 V2000
    0.0625   -2.5292    0.0000 N   0  0  0  0  0  0  0  0  0  0  0  0
   -1.2375   -2.5292    0.0000 C   0  0  0  0  0  0  0  0  0  0  0  0
    0.0625   -3.2792    0.0000 C   0  0  0  0  0  0  0  0  0  0  0  0
   -1.2333   -3.2792    0.0000 C   0  0  0  0  0  0  0  0  0  0  0  0
   -0.5833   -3.6542    0.0000 C   0  0  0  0  0  0  0  0  0  0  0  0
    0.7750   -2.1167    0.0000 C   0  0  0  0  0  0  0  0  0  0  0  0
    1.4917   -2.5292    0.0000 C   0  0  0  0  0  0  0  0  0  0  0  0
    2.9167   -2.5250    0.0000 C   0  0  0  0  0  0  0  0  0  0  0  0
    2.2042   -2.1167    0.0000 N   0  0  0  0  0  0  0  0  0  0  0  0
   -1.8250   -1.9500    0.0000 O   0  0  0  0  0  0  0  0  0  0  0  0
    3.6292   -2.1125    0.0000 C   0  0  0  0  0  0  0  0  0  0  0  0
    2.9167   -3.3500    0.0000 C   0  0  0  0  0  0  0  0  0  0  0  0
    4.3417   -2.5292    0.0000 C   0  0  0  0  0  0  0  0  0  0  0  0
    3.6250   -3.7625    0.0000 C   0  0  0  0  0  0  0  0  0  0  0  0
    4.3417   -3.3542    0.0000 C   0  0  0  0  0  0  0  0  0  0  0  0
    1.4917   -3.3542    0.0000 O   0  0  0  0  0  0  0  0  0  0  0  0
   -0.5833   -4.4000    0.0000 C   0  0  0  0  0  0  0  0  0  0  0  0
    0.7125   -3.6417    0.0000 C   0  0  0  0  0  0  0  0  0  0  0  0
   -1.8833   -3.6542    0.0000 C   0  0  0  0  0  0  0  0  0  0  0  0
    5.0542   -2.1167    0.0000 Cl  0  0  0  0  0  0  0  0  0  0  0  0
    3.6250   -4.5875    0.0000 Cl  0  0  0  0  0  0  0  0  0  0  0  0
    0.7167   -4.3917    0.0000 C   0  0  0  0  0  0  0  0  0  0  0  0
   -1.8833   -4.4042    0.0000 C   0  0  0  0  0  0  0  0  0  0  0  0
    0.0667   -4.7750    0.0000 C   0  0  0  0  0  0  0  0  0  0  0  0
   -1.2250   -4.7792    0.0000 C   0  0  0  0  0  0  0  0  0  0  0  0
  2  1  1  0  0  0  0
  3  1  1  0  0  0  0
  4  2  1  0  0  0  0
  5  3  2  0  0  0  0
  5  4  1  0  0  0  0
  6  1  1  0  0  0  0
  7  6  1  0  0  0  0
  8  9  1  0  0  0  0
  9  7  1  0  0  0  0
 10  2  2  0  0  0  0
 11  8  1  0  0  0  0
 12  8  2  0  0  0  0
 13 11  2  0  0  0  0
 13 15  1  0  0  0  0
 14 12  1  0  0  0  0
 15 14  2  0  0  0  0
 16  7  2  0  0  0  0
 17  5  1  0  0  0  0
 17 24  2  0  0  0  0
 18  3  1  0  0  0  0
 19  4  2  0  0  0  0
 20 13  1  0  0  0  0
 21 14  1  0  0  0  0
 22 18  2  0  0  0  0
 23 19  1  0  0  0  0
 23 25  2  0  0  0  0
 24 22  1  0  0  0  0
 25 17  1  0  0  0  0
M  END
>  <ID>
7589656

>  <Supplier>
ChemBridge

>  <clogP>
4.512000000000000e+000

>  <RB>
3

>  <tPSA>
4.941000000000002e+001

>  <Hacc>
2

>  <Hdon>
1

>  <LogSw>
-6.001000000000000e+000

>  <Group>
1

$$$$
9012488
 OpenBabel03312015312D

 21 22  0  0  0  0  0  0  0  0999 V2000
    1.6542    2.9958    0.0000 C   0  0  0  0  0  0  0  0  0  0  0  0
    0.9375    2.7833    0.0000 N   0  3  0  0  0  0  0  0  0  0  0  0
    2.2500    2.5333    0.0000 O   0  0  0  0  0  0  0  0  0  0  0  0
    2.8667    2.9458    0.0000 C   0  0  0  0  0  0  0  0  0  0  0  0
    3.5792    2.6958    0.0000 C   0  0  0  0  0  0  0  0  0  0  0  0
    4.1500    3.1750    0.0000 N   0  0  0  0  0  0  0  0  0  0  0  0
    1.9167    3.6958    0.0000 C   0  0  0  0  0  0  0  0  0  0  0  0
    2.6667    3.6708    0.0000 C   0  0  0  0  0  0  0  0  0  0  0  0
    4.8000    2.8000    0.0000 C   0  0  0  0  0  0  0  0  0  0  0  0
    5.4500    3.1750    0.0000 C   0  0  0  0  0  0  0  0  0  0  0  0
    0.4000    3.3083    0.0000 O   0  5  0  0  0  0  0  0  0  0  0  0
    0.7542    2.0583    0.0000 O   0  0  0  0  0  0  0  0  0  0  0  0
    3.7042    1.9583    0.0000 O   0  0  0  0  0  0  0  0  0  0  0  0
    5.4500    3.9250    0.0000 C   0  0  3  0  0  0  0  0  0  0  0  0
    4.8000    2.0500    0.0000 C   0  0  0  0  0  0  0  0  0  0  0  0
    6.1000    2.7958    0.0000 C   0  0  0  0  0  0  0  0  0  0  0  0
    6.1000    4.2917    0.0000 C   0  0  0  0  0  0  0  0  0  0  0  0
    4.9917    4.1792    0.0000 C   0  0  0  0  0  0  0  0  0  0  0  0
    5.4500    1.6750    0.0000 C   0  0  0  0  0  0  0  0  0  0  0  0
    6.1000    5.0417    0.0000 C   0  0  0  0  0  0  0  0  0  0  0  0
    6.1000    2.0458    0.0000 C   0  0  0  0  0  0  0  0  0  0  0  0
  2  1  1  0  0  0  0
  3  1  1  0  0  0  0
  4  3  1  0  0  0  0
  5  4  1  0  0  0  0
  6  5  1  0  0  0  0
  7  1  2  0  0  0  0
  8  7  1  0  0  0  0
  8  4  2  0  0  0  0
  9  6  1  0  0  0  0
 10  9  1  0  0  0  0
 11  2  1  0  0  0  0
 12  2  2  0  0  0  0
 13  5  2  0  0  0  0
 14 10  1  0  0  0  0
 15  9  2  0  0  0  0
 16 10  2  0  0  0  0
 17 14  1  0  0  0  0
 18 14  1  0  0  0  0
 19 15  1  0  0  0  0
 20 17  1  0  0  0  0
 21 19  2  0  0  0  0
 21 16  1  0  0  0  0
M  CHG  2   2   1  11  -1
M  END
>  <ID>
9012488

>  <Supplier>
ChemBridge

>  <clogP>
3.057000000000000e+000

>  <RB>
3

>  <tPSA>
8.538000000000000e+001

>  <Hacc>
4

>  <Hdon>
1

>  <LogSw>
-4.303999999999999e+000

>  <Group>
1

$$$$
9073531
 OpenBabel03312015312D

 22 23  0  0  0  0  0  0  0  0999 V2000
    3.7917    2.7583    0.0000 N   0  0  0  0  0  0  0  0  0  0  0  0
    3.3542    2.1500    0.0000 C   0  0  0  0  0  0  0  0  0  0  0  0
    4.5042    2.5250    0.0000 C   0  0  0  0  0  0  0  0  0  0  0  0
    3.7917    1.5458    0.0000 N   0  0  0  0  0  0  0  0  0  0  0  0
    6.4042    3.1083    0.0000 C   0  0  0  0  0  0  0  0  0  0  0  0
    4.5042    1.7750    0.0000 O   0  0  0  0  0  0  0  0  0  0  0  0
    5.8000    2.6625    0.0000 N   0  0  0  0  0  0  0  0  0  0  0  0
    5.1125    2.9708    0.0000 C   0  0  0  0  0  0  0  0  0  0  0  0
    2.6042    2.1500    0.0000 C   0  0  0  0  0  0  0  0  0  0  0  0
    6.3292    3.8583    0.0000 O   0  0  0  0  0  0  0  0  0  0  0  0
    7.0917    2.8000    0.0000 N   0  0  0  0  0  0  0  0  0  0  0  0
    2.2292    2.8000    0.0000 C   0  0  0  0  0  0  0  0  0  0  0  0
    2.2292    1.5000    0.0000 C   0  0  0  0  0  0  0  0  0  0  0  0
    5.2667    1.4750    0.0000 C   0  0  0  0  0  0  0  0  0  0  0  0
    5.3500    0.7333    0.0000 C   0  0  0  0  0  0  0  0  0  0  0  0
    1.1042    2.1500    0.0000 C   0  0  0  0  0  0  0  0  0  0  0  0
    1.4792    2.8000    0.0000 C   0  0  0  0  0  0  0  0  0  0  0  0
    1.4792    1.5000    0.0000 C   0  0  0  0  0  0  0  0  0  0  0  0
    5.8792    1.9208    0.0000 C   0  0  0  0  0  0  0  0  0  0  0  0
    0.3542    2.1500    0.0000 Cl  0  0  0  0  0  0  0  0  0  0  0  0
    7.6917    3.2375    0.0000 C   0  0  0  0  0  0  0  0  0  0  0  0
    8.3792    2.9333    0.0000 C   0  0  0  0  0  0  0  0  0  0  0  0
  2  1  1  0  0  0  0
  3  1  2  0  0  0  0
  4  2  2  0  0  0  0
  4  6  1  0  0  0  0
  5  7  1  0  0  0  0
  6  3  1  0  0  0  0
  7  8  1  0  0  0  0
  8  3  1  0  0  0  0
  9  2  1  0  0  0  0
 10  5  2  0  0  0  0
 11  5  1  0  0  0  0
 12  9  2  0  0  0  0
 13  9  1  0  0  0  0
 14 19  1  0  0  0  0
 15 14  2  0  0  0  0
 16 18  1  0  0  0  0
 17 12  1  0  0  0  0
 17 16  2  0  0  0  0
 18 13  2  0  0  0  0
 19  7  1  0  0  0  0
 20 16  1  0  0  0  0
 21 11  1  0  0  0  0
 22 21  1  0  0  0  0
M  END
>  <ID>
9073531

>  <Supplier>
ChemBridge

>  <clogP>
2.426000000000000e+000

>  <RB>
5

>  <tPSA>
7.126000000000001e+001

>  <Hacc>
4

>  <Hdon>
1

>  <LogSw>
-3.611000000000000e+000

>  <Group>
2

>  <Core>
204

$$$$
7676344
 OpenBabel03312015312D

 22 24  0  0  0  0  0  0  0  0999 V2000
    1.5500   -0.0167    0.0000 C   0  0  0  0  0  0  0  0  0  0  0  0
    2.2167    0.9000    0.0000 S   0  0  0  0  0  0  0  0  0  0  0  0
    2.1917   -0.9167    0.0000 C   0  0  0  0  0  0  0  0  0  0  0  0
    0.4167   -0.0167    0.0000 C   0  0  0  0  0  0  0  0  0  0  0  0
    3.2667   -0.5792    0.0000 C   0  0  0  0  0  0  0  0  0  0  0  0
    3.2792    0.5333    0.0000 C   0  0  0  0  0  0  0  0  0  0  0  0
   -0.1500    0.9500    0.0000 O   0  0  0  0  0  0  0  0  0  0  0  0
   -0.1333   -1.0000    0.0000 O   0  0  0  0  0  0  0  0  0  0  0  0
   -4.6625    1.0000    0.0000 C   0  0  0  0  0  0  0  0  0  0  0  0
   -3.5458    0.9833    0.0000 C   0  0  0  0  0  0  0  0  0  0  0  0
    1.8292   -2.0000    0.0000 Cl  0  0  0  0  0  0  0  0  0  0  0  0
   -5.2333    2.0000    0.0000 O   0  0  0  0  0  0  0  0  0  0  0  0
   -2.9708    1.9333    0.0000 C   0  0  0  0  0  0  0  0  0  0  0  0
   -3.0000    0.0125    0.0000 C   0  0  0  0  0  0  0  0  0  0  0  0
   -1.2833    0.9500    0.0000 C   0  0  0  0  0  0  0  0  0  0  0  0
   -1.8500    0.0000    0.0000 C   0  0  0  0  0  0  0  0  0  0  0  0
   -1.8458    1.9458    0.0000 C   0  0  0  0  0  0  0  0  0  0  0  0
    4.2500   -1.1542    0.0000 C   0  0  0  0  0  0  0  0  0  0  0  0
    4.2667    1.0958    0.0000 C   0  0  0  0  0  0  0  0  0  0  0  0
   -5.2500    0.0500    0.0000 C   0  0  0  0  0  0  0  0  0  0  0  0
    5.2292   -0.5875    0.0000 C   0  0  0  0  0  0  0  0  0  0  0  0
    5.2500    0.5125    0.0000 C   0  0  0  0  0  0  0  0  0  0  0  0
  2  1  1  0  0  0  0
  3  1  2  0  0  0  0
  4  1  1  0  0  0  0
  5  3  1  0  0  0  0
  6  2  1  0  0  0  0
  6  5  2  0  0  0  0
  7  4  1  0  0  0  0
  8  4  2  0  0  0  0
  9 10  1  0  0  0  0
 10 13  2  0  0  0  0
 11  3  1  0  0  0  0
 12  9  2  0  0  0  0
 13 17  1  0  0  0  0
 14 16  2  0  0  0  0
 14 10  1  0  0  0  0
 15  7  1  0  0  0  0
 16 15  1  0  0  0  0
 17 15  2  0  0  0  0
 18  5  1  0  0  0  0
 19  6  1  0  0  0  0
 20  9  1  0  0  0  0
 21 18  2  0  0  0  0
 22 19  2  0  0  0  0
 22 21  1  0  0  0  0
M  END
>  <ID>
7676344

>  <Supplier>
ChemBridge

>  <clogP>
4.722000000000000e+000

>  <RB>
4

>  <tPSA>
4.337000000000000e+001

>  <Hacc>
3

>  <Hdon>
0

>  <LogSw>
-5.341000000000000e+000

>  <Group>
1

>  <Core>
351

$$$$
