5275518
  -ISIS-  03310818212D

 37 41  0  0  0  0  0  0  0  0999 V2000
    1.2500    1.4000    0.0000 C   0  0  0  0  0  0  0  0  0  0  0  0
    2.1667    1.4958    0.0000 C   0  0  0  0  0  0  0  0  0  0  0  0
    2.5292    0.6625    0.0000 N   0  0  3  0  0  0  0  0  0  0  0  0
   -2.1208   -1.4292    0.0000 C   0  0  0  0  0  0  0  0  0  0  0  0
    1.0375    0.5125    0.0000 C   0  0  0  0  0  0  0  0  0  0  0  0
    1.8500    0.0333    0.0000 C   0  0  0  0  0  0  0  0  0  0  0  0
   -2.1000   -2.3500    0.0000 N   0  3  0  0  0  0  0  0  0  0  0  0
   -1.3333   -0.9292    0.0000 C   0  0  0  0  0  0  0  0  0  0  0  0
   -2.9333   -1.0167    0.0000 C   0  0  0  0  0  0  0  0  0  0  0  0
    0.6375    2.0833    0.0000 C   0  0  0  0  0  0  0  0  0  0  0  0
   -1.3833   -0.0292    0.0000 N   0  0  0  0  0  0  0  0  0  0  0  0
   -0.5333   -1.3792    0.0000 O   0  0  0  0  0  0  0  0  0  0  0  0
    1.8500   -0.8542    0.0000 C   0  0  0  0  0  0  0  0  0  0  0  0
   -2.9708   -0.0917    0.0000 N   0  0  0  0  0  0  0  0  0  0  0  0
    0.2542    0.0333    0.0000 C   0  0  0  0  0  0  0  0  0  0  0  0
   -1.2958   -2.7875    0.0000 O   0  5  0  0  0  0  0  0  0  0  0  0
    3.4000    0.5333    0.0000 C   0  0  0  0  0  0  0  0  0  0  0  0
   -2.2125    0.3958    0.0000 C   0  0  0  0  0  0  0  0  0  0  0  0
   -2.8833   -2.8167    0.0000 O   0  0  0  0  0  0  0  0  0  0  0  0
    0.2792   -0.8875    0.0000 C   0  0  0  0  0  0  0  0  0  0  0  0
    0.9292    2.9583    0.0000 O   0  0  0  0  0  0  0  0  0  0  0  0
   -3.6958   -1.5167    0.0000 C   0  0  3  0  0  0  0  0  0  0  0  0
    1.0375   -1.3375    0.0000 C   0  0  0  0  0  0  0  0  0  0  0  0
    2.6375    2.2833    0.0000 C   0  0  0  0  0  0  0  0  0  0  0  0
   -0.2625    1.9000    0.0000 O   0  0  0  0  0  0  0  0  0  0  0  0
    3.9792    1.2500    0.0000 C   0  0  0  0  0  0  0  0  0  0  0  0
    3.7542   -0.3292    0.0000 C   0  0  0  0  0  0  0  0  0  0  0  0
   -3.6208   -2.4375    0.0000 C   0  0  0  0  0  0  0  0  0  0  0  0
   -4.5000   -1.1042    0.0000 C   0  0  0  0  0  0  0  0  0  0  0  0
   -0.8458    2.5958    0.0000 C   0  0  0  0  0  0  0  0  0  0  0  0
   -1.7458    2.4125    0.0000 C   0  0  0  0  0  0  0  0  0  0  0  0
    4.8792    1.1125    0.0000 C   0  0  0  0  0  0  0  0  0  0  0  0
    4.6542   -0.4542    0.0000 C   0  0  0  0  0  0  0  0  0  0  0  0
   -4.4125   -2.9500    0.0000 C   0  0  0  0  0  0  0  0  0  0  0  0
   -5.2708   -1.6000    0.0000 C   0  0  0  0  0  0  0  0  0  0  0  0
   -5.2208   -2.5292    0.0000 C   0  0  0  0  0  0  0  0  0  0  0  0
    5.2375    0.2625    0.0000 C   0  0  0  0  0  0  0  0  0  0  0  0
  2  1  2  0  0  0  0
  3  2  1  0  0  0  0
  4  8  1  0  0  0  0
  5  1  1  0  0  0  0
  6  5  2  0  0  0  0
  7  4  1  0  0  0  0
  8 12  1  0  0  0  0
  9  4  2  0  0  0  0
 10  1  1  0  0  0  0
 11  8  2  0  0  0  0
 12 20  1  0  0  0  0
 13  6  1  0  0  0  0
 14 18  2  0  0  0  0
 15  5  1  0  0  0  0
 16  7  1  0  0  0  0
 17  3  1  0  0  0  0
 18 11  1  0  0  0  0
 19  7  2  0  0  0  0
 20 15  2  0  0  0  0
 21 10  2  0  0  0  0
 22  9  1  0  0  0  0
 23 20  1  0  0  0  0
 24  2  1  0  0  0  0
 25 10  1  0  0  0  0
 26 17  2  0  0  0  0
 27 17  1  0  0  0  0
 28 22  1  0  0  0  0
 29 22  1  0  0  0  0
 30 25  1  0  0  0  0
 31 30  1  0  0  0  0
 32 26  1  0  0  0  0
 33 27  2  0  0  0  0
 34 28  1  0  0  0  0
 35 29  1  0  0  0  0
 36 35  1  0  0  0  0
 37 33  1  0  0  0  0
  3  6  1  0  0  0  0
 23 13  2  0  0  0  0
 32 37  2  0  0  0  0
  9 14  1  0  0  0  0
 34 36  1  0  0  0  0
M  CHG  2   7   1  16  -1
M  END
>  <ID> (5275518)
5275518

>  <Supplier> (5275518)
ChemBridge

>  <clogP> (5275518)
7.790000000000000e+000

>  <RB> (5275518)
5

>  <tPSA> (5275518)
1.093800000000000e+002

>  <Hacc> (5275518)
8

>  <Hdon> (5275518)
0

>  <LogSw> (5275518)
-9.891000000000000e+000

>  <Group> (5275518)
3

$$$$
5275513
  -ISIS-  03310818212D

 25 27  0  0  0  0  0  0  0  0999 V2000
    0.7292    3.0000    0.0000 C   0  0  0  0  0  0  0  0  0  0  0  0
   -0.5958    2.9958    0.0000 C   0  0  0  0  0  0  0  0  0  0  0  0
    0.1000    3.3833    0.0000 C   0  0  3  0  0  0  0  0  0  0  0  0
    0.7292    2.2083    0.0000 C   0  0  0  0  0  0  0  0  0  0  0  0
   -0.5958    2.2125    0.0000 C   0  0  0  0  0  0  0  0  0  0  0  0
    0.1000    1.8000    0.0000 O   0  0  0  0  0  0  0  0  0  0  0  0
   -1.2708    3.3958    0.0000 C   0  0  0  0  0  0  0  0  0  0  0  0
    0.1000    4.1667    0.0000 C   0  0  0  0  0  0  0  0  0  0  0  0
    0.1000    5.7292    0.0000 C   0  0  0  0  0  0  0  0  0  0  0  0
    1.4375    3.4000    0.0000 C   0  0  0  0  0  0  0  0  0  0  0  0
   -0.5958    5.3375    0.0000 C   0  0  0  0  0  0  0  0  0  0  0  0
    0.7500    5.3375    0.0000 C   0  0  0  0  0  0  0  0  0  0  0  0
   -0.5958    4.5542    0.0000 C   0  0  0  0  0  0  0  0  0  0  0  0
    0.7500    4.5542    0.0000 C   0  0  0  0  0  0  0  0  0  0  0  0
    2.1292    3.8208    0.0000 N   0  0  0  0  0  0  0  0  0  0  0  0
   -1.2708    1.8125    0.0000 C   0  0  0  0  0  0  0  0  0  0  0  0
   -1.9500    2.9958    0.0000 C   0  0  0  0  0  0  0  0  0  0  0  0
   -1.2708    4.1667    0.0000 O   0  0  0  0  0  0  0  0  0  0  0  0
    1.4375    1.7833    0.0000 N   0  0  0  0  0  0  0  0  0  0  0  0
   -1.9500    2.2083    0.0000 C   0  0  3  0  0  0  0  0  0  0  0  0
   -1.2833    5.7167    0.0000 Br  0  0  0  0  0  0  0  0  0  0  0  0
    0.1042    6.5167    0.0000 O   0  0  0  0  0  0  0  0  0  0  0  0
    1.4292    5.7292    0.0000 O   0  0  0  0  0  0  0  0  0  0  0  0
   -2.6333    1.8000    0.0000 C   0  0  0  0  0  0  0  0  0  0  0  0
    2.1042    5.3375    0.0000 C   0  0  0  0  0  0  0  0  0  0  0  0
  2  3  1  0  0  0  0
  3  1  1  0  0  0  0
  4  1  2  0  0  0  0
  5  6  1  0  0  0  0
  6  4  1  0  0  0  0
  7  2  1  0  0  0  0
  8  3  1  0  0  0  0
  9 12  2  0  0  0  0
 10  1  1  0  0  0  0
 11 13  2  0  0  0  0
 12 14  1  0  0  0  0
 13  8  1  0  0  0  0
 14  8  2  0  0  0  0
 15 10  3  0  0  0  0
 16  5  1  0  0  0  0
 17  7  1  0  0  0  0
 18  7  2  0  0  0  0
 19  4  1  0  0  0  0
 20 16  1  0  0  0  0
 21 11  1  0  0  0  0
 22  9  1  0  0  0  0
 23 12  1  0  0  0  0
 24 20  1  0  0  0  0
 25 23  1  0  0  0  0
  5  2  2  0  0  0  0
 11  9  1  0  0  0  0
 20 17  1  0  0  0  0
M  END
>  <ID> (5275513)
5275513

>  <Supplier> (5275513)
ChemBridge

>  <clogP> (5275513)
1.080000000000000e+000

>  <RB> (5275513)
1

>  <tPSA> (5275513)
1.055700000000000e+002

>  <Hacc> (5275513)
5

>  <Hdon> (5275513)
2

>  <LogSw> (5275513)
-2.334000000000000e+000

>  <Group> (5275513)
1

>  <Core> (5275513)
091

$$$$
9082136
  -ISIS-  03310818292D

 24 27  0  0  0  0  0  0  0  0999 V2000
    3.2917    2.6583    0.0000 C   0  0  0  0  0  0  0  0  0  0  0  0
    3.9417    2.2833    0.0000 N   0  0  3  0  0  0  0  0  0  0  0  0
    5.2417    1.5333    0.0000 N   0  0  3  0  0  0  0  0  0  0  0  0
    2.6417    2.2833    0.0000 C   0  0  0  0  0  0  0  0  0  0  0  0
    1.3417    2.2833    0.0000 C   0  0  0  0  0  0  0  0  0  0  0  0
    5.8917    1.1583    0.0000 C   0  0  0  0  0  0  0  0  0  0  0  0
    1.9917    2.6583    0.0000 C   0  0  0  0  0  0  0  0  0  0  0  0
    1.3417    1.5333    0.0000 C   0  0  0  0  0  0  0  0  0  0  0  0
    0.6292    2.5208    0.0000 O   0  0  0  0  0  0  0  0  0  0  0  0
    0.6292    1.2958    0.0000 O   0  0  0  0  0  0  0  0  0  0  0  0
    4.5917    2.6583    0.0000 C   0  0  0  0  0  0  0  0  0  0  0  0
    3.9417    1.5333    0.0000 C   0  0  0  0  0  0  0  0  0  0  0  0
    4.5917    1.1583    0.0000 C   0  0  0  0  0  0  0  0  0  0  0  0
    5.2417    2.2833    0.0000 C   0  0  0  0  0  0  0  0  0  0  0  0
    0.1917    1.9083    0.0000 C   0  0  0  0  0  0  0  0  0  0  0  0
    3.2917    3.4083    0.0000 O   0  0  0  0  0  0  0  0  0  0  0  0
    2.6417    1.5333    0.0000 C   0  0  0  0  0  0  0  0  0  0  0  0
    5.8917    0.4083    0.0000 C   0  0  0  0  0  0  0  0  0  0  0  0
    1.9917    1.1583    0.0000 C   0  0  0  0  0  0  0  0  0  0  0  0
    6.5417    1.5333    0.0000 C   0  0  0  0  0  0  0  0  0  0  0  0
    5.2417    0.0333    0.0000 C   0  0  0  0  0  0  0  0  0  0  0  0
    6.5417    0.0333    0.0000 C   0  0  0  0  0  0  0  0  0  0  0  0
    7.1917    1.1583    0.0000 C   0  0  0  0  0  0  0  0  0  0  0  0
    7.1917    0.4083    0.0000 C   0  0  0  0  0  0  0  0  0  0  0  0
  2  1  1  0  0  0  0
  3 13  1  0  0  0  0
  4  1  1  0  0  0  0
  5  7  1  0  0  0  0
  6  3  1  0  0  0  0
  7  4  2  0  0  0  0
  8 19  1  0  0  0  0
  9  5  1  0  0  0  0
 10  8  1  0  0  0  0
 11  2  1  0  0  0  0
 12  2  1  0  0  0  0
 13 12  1  0  0  0  0
 14 11  1  0  0  0  0
 15  9  1  0  0  0  0
 16  1  2  0  0  0  0
 17  4  1  0  0  0  0
 18  6  1  0  0  0  0
 19 17  2  0  0  0  0
 20  6  2  0  0  0  0
 21 18  1  0  0  0  0
 22 18  2  0  0  0  0
 23 20  1  0  0  0  0
 24 23  2  0  0  0  0
  3 14  1  0  0  0  0
  5  8  2  0  0  0  0
 10 15  1  0  0  0  0
 22 24  1  0  0  0  0
M  END
>  <ID> (9082136)
9082136

>  <Supplier> (9082136)
ChemBridge

>  <clogP> (9082136)
2.250000000000000e+000

>  <RB> (9082136)
2

>  <tPSA> (9082136)
4.201000000000001e+001

>  <Hacc> (9082136)
3

>  <Hdon> (9082136)
0

>  <LogSw> (9082136)
-3.487000000000000e+000

>  <Group> (9082136)
2

>  <Core> (9082136)
158

$$$$
5333268
  -ISIS-  03310818212D

 26 27  0  0  0  0  0  0  0  0999 V2000
   -1.2625   -2.9292    0.0000 N   0  3  0  0  0  0  0  0  0  0  0  0
    0.6667   -1.8042    0.0000 C   0  0  0  0  0  0  0  0  0  0  0  0
    1.3167   -1.4292    0.0000 C   0  0  0  0  0  0  0  0  0  0  0  0
    0.0167   -1.4292    0.0000 C   0  0  0  0  0  0  0  0  0  0  0  0
   -0.6125   -2.5542    0.0000 C   0  0  0  0  0  0  0  0  0  0  0  0
   -0.6125   -1.8042    0.0000 C   0  0  0  0  0  0  0  0  0  0  0  0
    3.2667   -1.8042    0.0000 C   0  0  0  0  0  0  0  0  0  0  0  0
    1.9667   -1.8042    0.0000 N   0  0  0  0  0  0  0  0  0  0  0  0
    2.6167   -1.4292    0.0000 N   0  0  0  0  0  0  0  0  0  0  0  0
    0.6667   -2.5542    0.0000 C   0  0  0  0  0  0  0  0  0  0  0  0
   -1.9125   -2.5542    0.0000 O   0  5  0  0  0  0  0  0  0  0  0  0
   -1.2625   -3.6792    0.0000 O   0  0  0  0  0  0  0  0  0  0  0  0
    3.9167   -1.4292    0.0000 C   0  0  0  0  0  0  0  0  0  0  0  0
    5.8667   -0.3042    0.0000 C   0  0  3  0  0  0  0  0  0  0  0  0
    5.2167   -0.6792    0.0000 C   0  0  0  0  0  0  0  0  0  0  0  0
    0.0167   -2.9292    0.0000 C   0  0  0  0  0  0  0  0  0  0  0  0
    1.3167   -0.6792    0.0000 O   0  0  0  0  0  0  0  0  0  0  0  0
    3.2667   -2.5542    0.0000 O   0  0  0  0  0  0  0  0  0  0  0  0
    4.5667   -1.8042    0.0000 C   0  0  0  0  0  0  0  0  0  0  0  0
    3.9167   -0.6792    0.0000 C   0  0  0  0  0  0  0  0  0  0  0  0
    4.5667   -0.3042    0.0000 C   0  0  0  0  0  0  0  0  0  0  0  0
    5.2167   -1.4292    0.0000 C   0  0  0  0  0  0  0  0  0  0  0  0
    0.0167   -0.6792    0.0000 Cl  0  0  0  0  0  0  0  0  0  0  0  0
    5.8667    0.4333    0.0000 C   0  0  0  0  0  0  0  0  0  0  0  0
    6.6167   -0.3042    0.0000 C   0  0  0  0  0  0  0  0  0  0  0  0
    6.5167   -0.6792    0.0000 C   0  0  0  0  0  0  0  0  0  0  0  0
  2 10  2  0  0  0  0
  3  2  1  0  0  0  0
  4  6  2  0  0  0  0
  5  1  1  0  0  0  0
  6  5  1  0  0  0  0
  7  9  1  0  0  0  0
  8  3  1  0  0  0  0
  9  8  1  0  0  0  0
 10 16  1  0  0  0  0
 11  1  1  0  0  0  0
 12  1  2  0  0  0  0
 13  7  1  0  0  0  0
 14 15  1  0  0  0  0
 15 21  2  0  0  0  0
 16  5  2  0  0  0  0
 17  3  2  0  0  0  0
 18  7  2  0  0  0  0
 19 13  1  0  0  0  0
 20 13  2  0  0  0  0
 21 20  1  0  0  0  0
 22 19  2  0  0  0  0
 23  4  1  0  0  0  0
 24 14  1  0  0  0  0
 25 14  1  0  0  0  0
 26 14  1  0  0  0  0
  2  4  1  0  0  0  0
 22 15  1  0  0  0  0
M  CHG  2   1   1  11  -1
M  END
>  <ID> (5333268)
5333268

>  <Supplier> (5333268)
ChemBridge

>  <clogP> (5333268)
5.650000000000000e+000

>  <RB> (5333268)
4

>  <tPSA> (5333268)
1.013400000000000e+002

>  <Hacc> (5333268)
4

>  <Hdon> (5333268)
2

>  <LogSw> (5333268)
-7.154999999999998e+000

>  <Group> (5333268)
1

>  <Core> (5333268)
442

$$$$
7508287
  -ISIS-  03310818262D

 29 31  0  0  0  0  0  0  0  0999 V2000
   -1.5500    1.3333    0.0000 C   0  0  0  0  0  0  0  0  0  0  0  0
   -0.8125    1.7958    0.0000 C   0  0  0  0  0  0  0  0  0  0  0  0
   -1.5500    0.4708    0.0000 C   0  0  0  0  0  0  0  0  0  0  0  0
   -0.8125   -0.8042    0.0000 C   0  0  0  0  0  0  0  0  0  0  0  0
   -0.0958    1.3708    0.0000 N   0  0  0  0  0  0  0  0  0  0  0  0
   -0.8125    0.0500    0.0000 N   0  0  0  0  0  0  0  0  0  0  0  0
    0.6500    1.8125    0.0000 C   0  0  0  0  0  0  0  0  0  0  0  0
    0.6417    2.6750    0.0000 C   0  0  0  0  0  0  0  0  0  0  0  0
   -2.2958    1.7500    0.0000 C   0  0  0  0  0  0  0  0  0  0  0  0
   -0.0958   -1.2292    0.0000 C   0  0  0  0  0  0  0  0  0  0  0  0
   -0.8333    2.6500    0.0000 O   0  0  0  0  0  0  0  0  0  0  0  0
   -1.5500   -1.2292    0.0000 O   0  0  0  0  0  0  0  0  0  0  0  0
    1.4000    3.1333    0.0000 C   0  0  0  0  0  0  0  0  0  0  0  0
   -2.2958    0.0500    0.0000 C   0  0  0  0  0  0  0  0  0  0  0  0
    1.4292    1.3875    0.0000 C   0  0  0  0  0  0  0  0  0  0  0  0
    0.6500   -0.8042    0.0000 C   0  0  0  0  0  0  0  0  0  0  0  0
   -0.0958   -2.0667    0.0000 C   0  0  0  0  0  0  0  0  0  0  0  0
   -3.0333    1.3333    0.0000 C   0  0  0  0  0  0  0  0  0  0  0  0
    2.1542    2.7125    0.0000 C   0  0  0  0  0  0  0  0  0  0  0  0
    1.3875   -2.0667    0.0000 C   0  0  0  0  0  0  0  0  0  0  0  0
   -3.0333    0.4958    0.0000 C   0  0  0  0  0  0  0  0  0  0  0  0
    2.1917    1.8458    0.0000 C   0  0  0  0  0  0  0  0  0  0  0  0
    0.6500   -2.4875    0.0000 C   0  0  0  0  0  0  0  0  0  0  0  0
    1.3875   -1.2292    0.0000 C   0  0  0  0  0  0  0  0  0  0  0  0
   -3.7625    1.7458    0.0000 Cl  0  0  0  0  0  0  0  0  0  0  0  0
    2.1500   -2.4667    0.0000 O   0  0  0  0  0  0  0  0  0  0  0  0
   -0.1250    3.1083    0.0000 C   0  0  0  0  0  0  0  0  0  0  0  0
    2.9125    3.1708    0.0000 C   0  0  0  0  0  0  0  0  0  0  0  0
    2.9000   -2.0667    0.0000 C   0  0  0  0  0  0  0  0  0  0  0  0
  2  1  1  0  0  0  0
  3  1  2  0  0  0  0
  4  6  1  0  0  0  0
  5  2  1  0  0  0  0
  6  3  1  0  0  0  0
  7  5  1  0  0  0  0
  8  7  1  0  0  0  0
  9  1  1  0  0  0  0
 10  4  1  0  0  0  0
 11  2  2  0  0  0  0
 12  4  2  0  0  0  0
 13  8  2  0  0  0  0
 14  3  1  0  0  0  0
 15  7  2  0  0  0  0
 16 10  2  0  0  0  0
 17 10  1  0  0  0  0
 18  9  2  0  0  0  0
 19 22  2  0  0  0  0
 20 23  1  0  0  0  0
 21 18  1  0  0  0  0
 22 15  1  0  0  0  0
 23 17  2  0  0  0  0
 24 16  1  0  0  0  0
 25 18  1  0  0  0  0
 26 20  1  0  0  0  0
 27  8  1  0  0  0  0
 28 19  1  0  0  0  0
 29 26  1  0  0  0  0
 14 21  2  0  0  0  0
 20 24  2  0  0  0  0
 19 13  1  0  0  0  0
M  END
>  <ID> (7508287)
7508287

>  <Supplier> (7508287)
ChemBridge

>  <clogP> (7508287)
5.058000000000000e+000

>  <RB> (7508287)
4

>  <tPSA> (7508287)
6.743000000000001e+001

>  <Hacc> (7508287)
3

>  <Hdon> (7508287)
2

>  <LogSw> (7508287)
-6.948000000000000e+000

>  <Group> (7508287)
3

>  <Core> (7508287)
141

$$$$
6381087
  -ISIS-  03310818232D

 19 21  0  0  0  0  0  0  0  0999 V2000
    4.6042   -4.4125    0.0000 N   0  0  0  0  0  0  0  0  0  0  0  0
    7.4667   -4.4000    0.0000 C   0  0  0  0  0  0  0  0  0  0  0  0
    3.8917   -4.0000    0.0000 C   0  0  0  0  0  0  0  0  0  0  0  0
    6.7500   -3.9917    0.0000 C   0  0  0  0  0  0  0  0  0  0  0  0
    8.2167   -4.0625    0.0000 C   0  0  0  0  0  0  0  0  0  0  0  0
    7.5542   -5.2167    0.0000 S   0  0  0  0  0  0  0  0  0  0  0  0
    6.0375   -4.4042    0.0000 C   0  0  0  0  0  0  0  0  0  0  0  0
    8.3625   -5.3917    0.0000 C   0  0  0  0  0  0  0  0  0  0  0  0
    8.7750   -4.6750    0.0000 C   0  0  0  0  0  0  0  0  0  0  0  0
    5.3167   -3.9917    0.0000 C   0  0  0  0  0  0  0  0  0  0  0  0
    3.1750   -4.4167    0.0000 C   0  0  0  0  0  0  0  0  0  0  0  0
    3.8917   -3.1750    0.0000 C   0  0  0  0  0  0  0  0  0  0  0  0
    4.6000   -2.7542    0.0000 C   0  0  0  0  0  0  0  0  0  0  0  0
    5.3167   -3.1667    0.0000 C   0  0  0  0  0  0  0  0  0  0  0  0
    3.1667   -5.2417    0.0000 O   0  0  0  0  0  0  0  0  0  0  0  0
    8.3875   -3.2542    0.0000 C   0  0  0  0  0  0  0  0  0  0  0  0
    2.4625   -3.1750    0.0000 C   0  0  0  0  0  0  0  0  0  0  0  0
    2.4625   -4.0042    0.0000 C   0  0  0  0  0  0  0  0  0  0  0  0
    3.1750   -2.7625    0.0000 C   0  0  0  0  0  0  0  0  0  0  0  0
  2  4  1  0  0  0  0
  3  1  1  0  0  0  0
  4  7  2  0  0  0  0
  5  2  2  0  0  0  0
  6  2  1  0  0  0  0
  7 10  1  0  0  0  0
  8  6  1  0  0  0  0
  9  5  1  0  0  0  0
 10  1  2  0  0  0  0
 11  3  2  0  0  0  0
 12  3  1  0  0  0  0
 13 14  2  0  0  0  0
 14 10  1  0  0  0  0
 15 11  1  0  0  0  0
 16  5  1  0  0  0  0
 17 19  1  0  0  0  0
 18 11  1  0  0  0  0
 19 12  2  0  0  0  0
 12 13  1  0  0  0  0
 17 18  2  0  0  0  0
  9  8  2  0  0  0  0
M  END
>  <ID> (6381087)
6381087

>  <Supplier> (6381087)
ChemBridge

>  <clogP> (6381087)
4.510000000000000e+000

>  <RB> (6381087)
2

>  <tPSA> (6381087)
3.311999999999998e+001

>  <Hacc> (6381087)
2

>  <Hdon> (6381087)
1

>  <LogSw> (6381087)
-4.422000000000000e+000

>  <Group> (6381087)
3

>  <Core> (6381087)
275

$$$$
6381084
  -ISIS-  03310818232D

 26 28  0  0  0  0  0  0  0  0999 V2000
    6.2250   -4.7875    0.0000 C   0  0  0  0  0  0  0  0  0  0  0  0
    5.6500   -4.3000    0.0000 S   0  0  0  0  0  0  0  0  0  0  0  0
    5.9292   -5.4792    0.0000 N   0  0  0  0  0  0  0  0  0  0  0  0
    5.1875   -5.4167    0.0000 N   0  0  0  0  0  0  0  0  0  0  0  0
    6.9500   -4.6125    0.0000 N   0  0  0  0  0  0  0  0  0  0  0  0
    5.0167   -4.6917    0.0000 C   0  0  0  0  0  0  0  0  0  0  0  0
    7.1625   -3.8917    0.0000 C   0  0  0  0  0  0  0  0  0  0  0  0
    7.9500   -3.6667    0.0000 N   0  0  0  0  0  0  0  0  0  0  0  0
    6.6500   -3.3167    0.0000 O   0  0  0  0  0  0  0  0  0  0  0  0
    8.6792   -3.5167    0.0000 C   0  0  0  0  0  0  0  0  0  0  0  0
    8.9125   -2.8042    0.0000 C   0  0  0  0  0  0  0  0  0  0  0  0
    4.3917   -4.3792    0.0000 C   0  0  0  0  0  0  0  0  0  0  0  0
    4.7250   -3.7125    0.0000 C   0  0  0  0  0  0  0  0  0  0  0  0
    9.6417   -2.6500    0.0000 C   0  0  0  0  0  0  0  0  0  0  0  0
    5.4000   -2.3750    0.0000 C   0  0  0  0  0  0  0  0  0  0  0  0
    4.3125   -3.0875    0.0000 C   0  0  0  0  0  0  0  0  0  0  0  0
    5.4667   -3.6667    0.0000 C   0  0  0  0  0  0  0  0  0  0  0  0
    5.8000   -3.0000    0.0000 C   0  0  0  0  0  0  0  0  0  0  0  0
    4.6542   -2.4167    0.0000 C   0  0  0  0  0  0  0  0  0  0  0  0
    9.8792   -1.9292    0.0000 O   0  0  0  0  0  0  0  0  0  0  0  0
    5.7542   -1.6625    0.0000 O   0  0  0  0  0  0  0  0  0  0  0  0
    9.9167   -3.9167    0.0000 C   0  0  0  0  0  0  0  0  0  0  0  0
    9.1792   -4.0667    0.0000 C   0  0  0  0  0  0  0  0  0  0  0  0
   10.1417   -3.2042    0.0000 C   0  0  0  0  0  0  0  0  0  0  0  0
    6.5542   -1.6167    0.0000 C   0  0  0  0  0  0  0  0  0  0  0  0
    9.3667   -1.3750    0.0000 C   0  0  0  0  0  0  0  0  0  0  0  0
  2  1  1  0  0  0  0
  3  1  2  0  0  0  0
  4  3  1  0  0  0  0
  5  1  1  0  0  0  0
  6  2  1  0  0  0  0
  7  5  1  0  0  0  0
  8  7  1  0  0  0  0
  9  7  2  0  0  0  0
 10  8  1  0  0  0  0
 11 10  2  0  0  0  0
 12  6  1  0  0  0  0
 13 12  1  0  0  0  0
 14 11  1  0  0  0  0
 15 18  1  0  0  0  0
 16 13  2  0  0  0  0
 17 13  1  0  0  0  0
 18 17  2  0  0  0  0
 19 16  1  0  0  0  0
 20 14  1  0  0  0  0
 21 15  1  0  0  0  0
 22 23  2  0  0  0  0
 23 10  1  0  0  0  0
 24 22  1  0  0  0  0
 25 21  1  0  0  0  0
 26 20  1  0  0  0  0
  4  6  2  0  0  0  0
 19 15  2  0  0  0  0
 14 24  2  0  0  0  0
M  END
>  <ID> (6381084)
6381084

>  <Supplier> (6381084)
ChemBridge

>  <clogP> (6381084)
3.430000000000000e+000

>  <RB> (6381084)
4

>  <tPSA> (6381084)
8.537000000000001e+001

>  <Hacc> (6381084)
5

>  <Hdon> (6381084)
2

>  <LogSw> (6381084)
-4.830000000000000e+000

>  <Group> (6381084)
3

>  <Core> (6381084)
246

$$$$
9034967
  -ISIS-  03310818282D

 25 27  0  0  0  0  0  0  0  0999 V2000
    7.7250    1.9750    0.0000 C   0  0  0  0  0  0  0  0  0  0  0  0
    7.0750    1.6000    0.0000 C   0  0  0  0  0  0  0  0  0  0  0  0
   10.9667    1.6000    0.0000 N   0  0  0  0  0  0  0  0  0  0  0  0
   10.9667    3.1083    0.0000 N   0  0  0  0  0  0  0  0  0  0  0  0
   10.3250    1.9750    0.0000 C   0  0  0  0  0  0  0  0  0  0  0  0
    8.3750    1.6000    0.0000 N   0  0  0  0  0  0  0  0  0  0  0  0
   10.3250    2.7250    0.0000 C   0  0  0  0  0  0  0  0  0  0  0  0
   11.6167    1.9750    0.0000 C   0  0  0  0  0  0  0  0  0  0  0  0
   11.6167    2.7250    0.0000 C   0  0  0  0  0  0  0  0  0  0  0  0
    9.6750    1.6000    0.0000 C   0  0  0  0  0  0  0  0  0  0  0  0
    9.0250    1.9750    0.0000 C   0  0  0  0  0  0  0  0  0  0  0  0
    7.7250    2.7250    0.0000 O   0  0  0  0  0  0  0  0  0  0  0  0
    6.4250    1.9750    0.0000 C   0  0  0  0  0  0  0  0  0  0  0  0
    7.0750    0.8500    0.0000 C   0  0  0  0  0  0  0  0  0  0  0  0
    9.6750    3.1083    0.0000 C   0  0  0  0  0  0  0  0  0  0  0  0
    9.0250    2.7250    0.0000 C   0  0  0  0  0  0  0  0  0  0  0  0
    6.4250    2.7250    0.0000 O   0  0  0  0  0  0  0  0  0  0  0  0
    7.7250    0.4750    0.0000 O   0  0  0  0  0  0  0  0  0  0  0  0
    5.7750    0.8500    0.0000 C   0  0  0  0  0  0  0  0  0  0  0  0
   12.2667    3.1083    0.0000 C   0  0  0  0  0  0  0  0  0  0  0  0
   12.2667    1.6000    0.0000 C   0  0  0  0  0  0  0  0  0  0  0  0
    6.4250    0.4750    0.0000 C   0  0  0  0  0  0  0  0  0  0  0  0
    5.7750    1.6000    0.0000 C   0  0  0  0  0  0  0  0  0  0  0  0
    5.7750    3.1083    0.0000 C   0  0  0  0  0  0  0  0  0  0  0  0
    7.7250   -0.2750    0.0000 C   0  0  0  0  0  0  0  0  0  0  0  0
  2  1  1  0  0  0  0
  3  5  1  0  0  0  0
  4  7  1  0  0  0  0
  5 10  2  0  0  0  0
  6  1  1  0  0  0  0
  7 15  2  0  0  0  0
  8  3  2  0  0  0  0
  9  4  2  0  0  0  0
 10 11  1  0  0  0  0
 11  6  1  0  0  0  0
 12  1  2  0  0  0  0
 13  2  2  0  0  0  0
 14  2  1  0  0  0  0
 15 16  1  0  0  0  0
 16 11  2  0  0  0  0
 17 13  1  0  0  0  0
 18 14  1  0  0  0  0
 19 22  1  0  0  0  0
 20  9  1  0  0  0  0
 21  8  1  0  0  0  0
 22 14  2  0  0  0  0
 23 13  1  0  0  0  0
 24 17  1  0  0  0  0
 25 18  1  0  0  0  0
 23 19  2  0  0  0  0
  5  7  1  0  0  0  0
  8  9  1  0  0  0  0
M  END
>  <ID> (9034967)
9034967

>  <Supplier> (9034967)
ChemBridge

>  <clogP> (9034967)
3.520000000000000e+000

>  <RB> (9034967)
2

>  <tPSA> (9034967)
7.334000000000000e+001

>  <Hacc> (9034967)
5

>  <Hdon> (9034967)
1

>  <LogSw> (9034967)
-4.666000000000000e+000

>  <Group> (9034967)
2

>  <Core> (9034967)
423

$$$$
6381082
  -ISIS-  03310818232D

 28 30  0  0  0  0  0  0  0  0999 V2000
    6.3625   -5.3792    0.0000 C   0  0  0  0  0  0  0  0  0  0  0  0
    5.7375   -4.9292    0.0000 S   0  0  0  0  0  0  0  0  0  0  0  0
    6.1125   -6.1292    0.0000 N   0  0  0  0  0  0  0  0  0  0  0  0
    5.1125   -5.3792    0.0000 C   0  0  0  0  0  0  0  0  0  0  0  0
    5.3500   -6.1292    0.0000 N   0  0  0  0  0  0  0  0  0  0  0  0
    7.0917   -5.1417    0.0000 N   0  0  0  0  0  0  0  0  0  0  0  0
    7.7625   -5.1292    0.0000 C   0  0  0  0  0  0  0  0  0  0  0  0
    4.0042   -5.7292    0.0000 C   0  0  0  0  0  0  0  0  0  0  0  0
    4.5917   -5.2125    0.0000 C   0  0  0  0  0  0  0  0  0  0  0  0
    8.1625   -5.7292    0.0000 N   0  0  0  0  0  0  0  0  0  0  0  0
    3.2792   -5.4875    0.0000 N   0  0  0  0  0  0  0  0  0  0  0  0
    8.1042   -4.5375    0.0000 O   0  0  0  0  0  0  0  0  0  0  0  0
    4.1542   -6.4750    0.0000 O   0  0  0  0  0  0  0  0  0  0  0  0
    8.4917   -6.3125    0.0000 C   0  0  0  0  0  0  0  0  0  0  0  0
    2.7042   -5.9917    0.0000 C   0  0  0  0  0  0  0  0  0  0  0  0
    9.1542   -7.4667    0.0000 C   0  0  0  0  0  0  0  0  0  0  0  0
    1.5667   -7.0000    0.0000 C   0  0  0  0  0  0  0  0  0  0  0  0
    9.4875   -8.0542    0.0000 F   0  0  0  0  0  0  0  0  0  0  0  0
    8.1542   -6.8875    0.0000 C   0  0  0  0  0  0  0  0  0  0  0  0
    2.8625   -6.7292    0.0000 C   0  0  0  0  0  0  0  0  0  0  0  0
    9.1542   -6.3125    0.0000 C   0  0  0  0  0  0  0  0  0  0  0  0
    1.9917   -5.7417    0.0000 C   0  0  0  0  0  0  0  0  0  0  0  0
    8.4875   -7.4625    0.0000 C   0  0  0  0  0  0  0  0  0  0  0  0
    9.4875   -6.8917    0.0000 C   0  0  0  0  0  0  0  0  0  0  0  0
    1.4167   -6.2500    0.0000 C   0  0  0  0  0  0  0  0  0  0  0  0
    2.2917   -7.2417    0.0000 C   0  0  0  0  0  0  0  0  0  0  0  0
    1.0042   -7.4917    0.0000 O   0  0  0  0  0  0  0  0  0  0  0  0
    1.1542   -8.2292    0.0000 C   0  0  0  0  0  0  0  0  0  0  0  0
  2  1  1  0  0  0  0
  3  1  2  0  0  0  0
  4  2  1  0  0  0  0
  5  3  1  0  0  0  0
  6  1  1  0  0  0  0
  7  6  1  0  0  0  0
  8  9  1  0  0  0  0
  9  4  1  0  0  0  0
 10  7  1  0  0  0  0
 11  8  1  0  0  0  0
 12  7  2  0  0  0  0
 13  8  2  0  0  0  0
 14 10  1  0  0  0  0
 15 11  1  0  0  0  0
 16 24  2  0  0  0  0
 17 25  2  0  0  0  0
 18 16  1  0  0  0  0
 19 14  1  0  0  0  0
 20 15  1  0  0  0  0
 21 14  2  0  0  0  0
 22 15  2  0  0  0  0
 23 19  2  0  0  0  0
 24 21  1  0  0  0  0
 25 22  1  0  0  0  0
 26 20  2  0  0  0  0
 27 17  1  0  0  0  0
 28 27  1  0  0  0  0
  4  5  2  0  0  0  0
 16 23  1  0  0  0  0
 17 26  1  0  0  0  0
M  END
>  <ID> (6381082)
6381082

>  <Supplier> (6381082)
ChemBridge

>  <clogP> (6381082)
2.310000000000000e+000

>  <RB> (6381082)
5

>  <tPSA> (6381082)
1.052400000000000e+002

>  <Hacc> (6381082)
5

>  <Hdon> (6381082)
3

>  <LogSw> (6381082)
-4.099000000000000e+000

>  <Group> (6381082)
3

>  <Core> (6381082)
246

$$$$
6381081
  -ISIS-  03310818232D

 24 25  0  0  0  0  0  0  0  0999 V2000
    2.5042    0.3250    0.0000 C   0  0  0  0  0  0  0  0  0  0  0  0
    3.2250    0.7333    0.0000 N   0  0  0  0  0  0  0  0  0  0  0  0
    1.2042    0.3375    0.0000 O   0  0  0  0  0  0  0  0  0  0  0  0
    0.5625    0.7208    0.0000 C   0  0  0  0  0  0  0  0  0  0  0  0
   -0.0958    0.3583    0.0000 C   0  0  0  0  0  0  0  0  0  0  0  0
    4.5250    0.7333    0.0000 C   0  0  0  0  0  0  0  0  0  0  0  0
    5.1750    0.3500    0.0000 C   0  0  0  0  0  0  0  0  0  0  0  0
    1.8542    0.7083    0.0000 C   0  0  3  0  0  0  0  0  0  0  0  0
   -0.7375    0.7375    0.0000 C   0  0  0  0  0  0  0  0  0  0  0  0
    3.8667    0.3583    0.0000 C   0  0  0  0  0  0  0  0  0  0  0  0
    5.1667   -0.4042    0.0000 C   0  0  0  0  0  0  0  0  0  0  0  0
    2.5000   -0.5000    0.0000 O   0  0  0  0  0  0  0  0  0  0  0  0
    0.5667    1.4708    0.0000 C   0  0  0  0  0  0  0  0  0  0  0  0
    4.5167   -0.7750    0.0000 C   0  0  0  0  0  0  0  0  0  0  0  0
   -0.7333    1.4875    0.0000 C   0  0  0  0  0  0  0  0  0  0  0  0
   -0.1000   -0.3917    0.0000 Cl  0  0  0  0  0  0  0  0  0  0  0  0
    3.8667   -0.3917    0.0000 C   0  0  0  0  0  0  0  0  0  0  0  0
   -0.0750    1.8583    0.0000 C   0  0  0  0  0  0  0  0  0  0  0  0
    5.8250    0.7208    0.0000 O   0  0  0  0  0  0  0  0  0  0  0  0
   -1.3750    1.8708    0.0000 Cl  0  0  0  0  0  0  0  0  0  0  0  0
    5.8167   -0.7792    0.0000 O   0  0  0  0  0  0  0  0  0  0  0  0
    1.8667    1.4583    0.0000 C   0  0  0  0  0  0  0  0  0  0  0  0
    5.8292    1.4708    0.0000 C   0  0  0  0  0  0  0  0  0  0  0  0
    6.4667   -0.4125    0.0000 C   0  0  0  0  0  0  0  0  0  0  0  0
  2  1  1  0  0  0  0
  3  8  1  0  0  0  0
  4  3  1  0  0  0  0
  5  4  2  0  0  0  0
  6 10  2  0  0  0  0
  7  6  1  0  0  0  0
  8  1  1  0  0  0  0
  9  5  1  0  0  0  0
 10  2  1  0  0  0  0
 11 14  1  0  0  0  0
 12  1  2  0  0  0  0
 13  4  1  0  0  0  0
 14 17  2  0  0  0  0
 15 18  1  0  0  0  0
 16  5  1  0  0  0  0
 17 10  1  0  0  0  0
 18 13  2  0  0  0  0
 19  7  1  0  0  0  0
 20 15  1  0  0  0  0
 21 11  1  0  0  0  0
 22  8  1  0  0  0  0
 23 19  1  0  0  0  0
 24 21  1  0  0  0  0
  7 11  2  0  0  0  0
  9 15  2  0  0  0  0
M  END
>  <ID> (6381081)
6381081

>  <Supplier> (6381081)
ChemBridge

>  <clogP> (6381081)
4.100000000000000e+000

>  <RB> (6381081)
4

>  <tPSA> (6381081)
5.679000000000001e+001

>  <Hacc> (6381081)
4

>  <Hdon> (6381081)
1

>  <LogSw> (6381081)
-5.401000000000002e+000

>  <Group> (6381081)
2

>  <Core> (6381081)
315

$$$$
7227723
  -ISIS-  03310818262D

 23 25  0  0  0  0  0  0  0  0999 V2000
    2.1125   -0.2292    0.0000 N   0  0  3  0  0  0  0  0  0  0  0  0
    2.3625   -1.0167    0.0000 C   0  0  0  0  0  0  0  0  0  0  0  0
    3.4417   -0.2292    0.0000 C   0  0  0  0  0  0  0  0  0  0  0  0
    2.7750    0.2583    0.0000 C   0  0  0  0  0  0  0  0  0  0  0  0
    3.1875   -1.0167    0.0000 S   0  0  0  0  0  0  0  0  0  0  0  0
    4.2292    0.0250    0.0000 C   0  0  0  0  0  0  0  0  0  0  0  0
    4.4042    0.8333    0.0000 C   0  0  0  0  0  0  0  0  0  0  0  0
    5.1542    1.1708    0.0000 N   0  0  3  0  0  0  0  0  0  0  0  0
    0.7125   -0.5292    0.0000 C   0  0  0  0  0  0  0  0  0  0  0  0
    5.8750    0.7583    0.0000 C   0  0  0  0  0  0  0  0  0  0  0  0
    0.1250   -1.1125    0.0000 C   0  0  0  0  0  0  0  0  0  0  0  0
    5.0667    1.9875    0.0000 C   0  0  0  0  0  0  0  0  0  0  0  0
    1.8792   -1.6792    0.0000 O   0  0  0  0  0  0  0  0  0  0  0  0
    3.8542    1.4458    0.0000 C   0  0  0  0  0  0  0  0  0  0  0  0
    2.7750    1.0833    0.0000 O   0  0  0  0  0  0  0  0  0  0  0  0
    4.2667    2.1583    0.0000 C   0  0  0  0  0  0  0  0  0  0  0  0
    1.3292    0.0250    0.0000 C   0  0  0  0  0  0  0  0  0  0  0  0
    5.8667   -0.0750    0.0000 C   0  0  0  0  0  0  0  0  0  0  0  0
    6.5792    1.1708    0.0000 C   0  0  0  0  0  0  0  0  0  0  0  0
    7.3000   -0.0750    0.0000 C   0  0  0  0  0  0  0  0  0  0  0  0
    6.5792   -0.4875    0.0000 C   0  0  0  0  0  0  0  0  0  0  0  0
    7.3000    0.7500    0.0000 C   0  0  0  0  0  0  0  0  0  0  0  0
    8.0167   -0.4917    0.0000 F   0  0  0  0  0  0  0  0  0  0  0  0
  2  1  1  0  0  0  0
  3  4  1  0  0  0  0
  4  1  1  0  0  0  0
  5  2  1  0  0  0  0
  6  3  2  0  0  0  0
  7  6  1  0  0  0  0
  8  7  1  0  0  0  0
  9 17  1  0  0  0  0
 10  8  1  0  0  0  0
 11  9  3  0  0  0  0
 12  8  1  0  0  0  0
 13  2  2  0  0  0  0
 14  7  2  0  0  0  0
 15  4  2  0  0  0  0
 16 14  1  0  0  0  0
 17  1  1  0  0  0  0
 18 10  2  0  0  0  0
 19 10  1  0  0  0  0
 20 22  1  0  0  0  0
 21 18  1  0  0  0  0
 22 19  2  0  0  0  0
 23 20  1  0  0  0  0
  5  3  1  0  0  0  0
 12 16  2  0  0  0  0
 21 20  2  0  0  0  0
M  END
>  <ID> (7227723)
7227723

>  <Supplier> (7227723)
ChemBridge

>  <clogP> (7227723)
4.100000000000000e+000

>  <RB> (7227723)
4

>  <tPSA> (7227723)
4.231000000000002e+001

>  <Hacc> (7227723)
3

>  <Hdon> (7227723)
0

>  <LogSw> (7227723)
-5.081000000000000e+000

>  <Group> (7227723)
2

>  <Core> (7227723)
002

$$$$
7227728
  -ISIS-  03310818262D

 23 24  0  0  0  0  0  0  0  0999 V2000
    2.2292   -2.4792    0.0000 C   0  0  0  0  0  0  0  0  0  0  0  0
    6.5000   -3.2792    0.0000 C   0  0  0  0  0  0  0  0  0  0  0  0
    2.7125   -3.2917    0.0000 N   0  0  0  0  0  0  0  0  0  0  0  0
    2.6917   -1.6625    0.0000 C   0  0  0  0  0  0  0  0  0  0  0  0
    5.5542   -3.2792    0.0000 C   0  0  0  0  0  0  0  0  0  0  0  0
    6.9792   -4.0917    0.0000 N   0  0  3  0  0  0  0  0  0  0  0  0
    6.9667   -2.4500    0.0000 O   0  0  0  0  0  0  0  0  0  0  0  0
    1.2917   -2.4875    0.0000 O   0  0  0  0  0  0  0  0  0  0  0  0
    2.2167   -0.8542    0.0000 C   0  0  0  0  0  0  0  0  0  0  0  0
    5.0792   -4.1042    0.0000 C   0  0  0  0  0  0  0  0  0  0  0  0
    5.0792   -2.4625    0.0000 C   0  0  0  0  0  0  0  0  0  0  0  0
    3.6542   -3.2875    0.0000 C   0  0  0  0  0  0  0  0  0  0  0  0
    2.6792   -0.0417    0.0000 C   0  0  0  0  0  0  0  0  0  0  0  0
    4.1250   -2.4625    0.0000 C   0  0  0  0  0  0  0  0  0  0  0  0
    4.1292   -4.1125    0.0000 C   0  0  0  0  0  0  0  0  0  0  0  0
    2.2042    0.7708    0.0000 I   0  0  0  0  0  0  0  0  0  0  0  0
    3.6292   -1.6542    0.0000 C   0  0  0  0  0  0  0  0  0  0  0  0
    4.0917   -0.8417    0.0000 C   0  0  0  0  0  0  0  0  0  0  0  0
    6.5167   -4.9167    0.0000 C   0  0  0  0  0  0  0  0  0  0  0  0
    7.9250   -4.0875    0.0000 C   0  0  0  0  0  0  0  0  0  0  0  0
    3.6167   -0.0292    0.0000 C   0  0  0  0  0  0  0  0  0  0  0  0
    6.9917   -5.7292    0.0000 C   0  0  0  0  0  0  0  0  0  0  0  0
    8.4042   -4.9042    0.0000 C   0  0  0  0  0  0  0  0  0  0  0  0
  2  5  1  0  0  0  0
  3  1  1  0  0  0  0
  4  1  1  0  0  0  0
  5 10  1  0  0  0  0
  6  2  1  0  0  0  0
  7  2  2  0  0  0  0
  8  1  2  0  0  0  0
  9  4  2  0  0  0  0
 10 15  2  0  0  0  0
 11 14  1  0  0  0  0
 12  3  1  0  0  0  0
 13  9  1  0  0  0  0
 14 12  2  0  0  0  0
 15 12  1  0  0  0  0
 16 13  1  0  0  0  0
 17  4  1  0  0  0  0
 18 17  2  0  0  0  0
 19  6  1  0  0  0  0
 20  6  1  0  0  0  0
 21 18  1  0  0  0  0
 22 19  1  0  0  0  0
 23 20  1  0  0  0  0
 21 13  2  0  0  0  0
  5 11  2  0  0  0  0
M  END
>  <ID> (7227728)
7227728

>  <Supplier> (7227728)
ChemBridge

>  <clogP> (7227728)
3.830000000000000e+000

>  <RB> (7227728)
3

>  <tPSA> (7227728)
4.941000000000002e+001

>  <Hacc> (7227728)
2

>  <Hdon> (7227728)
1

>  <LogSw> (7227728)
-5.549000000000000e+000

>  <Group> (7227728)
2

>  <Core> (7227728)
150

$$$$
7845540
  -ISIS-  03310818272D

 27 29  0  0  0  0  0  0  0  0999 V2000
   -2.3083    3.1083    0.0000 C   0  0  3  0  0  0  0  0  0  0  0  0
   -1.6250    3.4083    0.0000 N   0  0  3  0  0  0  0  0  0  0  0  0
   -1.7083    4.1500    0.0000 N   0  0  0  0  0  0  0  0  0  0  0  0
   -2.9208    2.6625    0.0000 C   0  0  3  0  0  0  0  0  0  0  0  0
   -2.8125    3.6708    0.0000 C   0  0  0  0  0  0  0  0  0  0  0  0
   -2.4375    4.3042    0.0000 C   0  0  0  0  0  0  0  0  0  0  0  0
   -0.9750    3.0333    0.0000 C   0  0  0  0  0  0  0  0  0  0  0  0
    2.2667    3.4083    0.0000 C   0  0  0  0  0  0  0  0  0  0  0  0
    2.2667    4.1542    0.0000 C   0  0  0  0  0  0  0  0  0  0  0  0
    2.9875    3.1833    0.0000 O   0  0  0  0  0  0  0  0  0  0  0  0
    2.9875    4.3875    0.0000 O   0  0  0  0  0  0  0  0  0  0  0  0
   -1.9333    2.4583    0.0000 O   0  0  0  0  0  0  0  0  0  0  0  0
    3.4250    3.7833    0.0000 C   0  0  0  0  0  0  0  0  0  0  0  0
   -0.9750    2.2833    0.0000 O   0  0  0  0  0  0  0  0  0  0  0  0
    1.6250    3.0333    0.0000 C   0  0  0  0  0  0  0  0  0  0  0  0
   -0.3250    3.4083    0.0000 C   0  0  0  0  0  0  0  0  0  0  0  0
   -3.5000    3.1333    0.0000 F   0  0  0  0  0  0  0  0  0  0  0  0
   -3.4375    2.1250    0.0000 F   0  0  0  0  0  0  0  0  0  0  0  0
   -2.4250    2.0958    0.0000 F   0  0  0  0  0  0  0  0  0  0  0  0
    1.6250    4.5292    0.0000 C   0  0  0  0  0  0  0  0  0  0  0  0
   -2.7458    4.9917    0.0000 C   0  0  0  0  0  0  0  0  0  0  0  0
    0.9750    3.4083    0.0000 C   0  0  0  0  0  0  0  0  0  0  0  0
    0.3250    3.0333    0.0000 C   0  0  0  0  0  0  0  0  0  0  0  0
    0.9750    4.1542    0.0000 C   0  0  0  0  0  0  0  0  0  0  0  0
   -3.4875    5.0667    0.0000 C   0  0  3  0  0  0  0  0  0  0  0  0
   -3.7958    5.7542    0.0000 C   0  0  0  0  0  0  0  0  0  0  0  0
   -3.9333    4.4625    0.0000 C   0  0  0  0  0  0  0  0  0  0  0  0
  2  1  1  0  0  0  0
  3  2  1  0  0  0  0
  4  1  1  0  0  0  0
  5  1  1  0  0  0  0
  6  5  1  0  0  0  0
  7  2  1  0  0  0  0
  8 15  2  0  0  0  0
  9 20  2  0  0  0  0
 10  8  1  0  0  0  0
 11  9  1  0  0  0  0
 12  1  1  0  0  0  0
 13 10  1  0  0  0  0
 14  7  2  0  0  0  0
 15 22  1  0  0  0  0
 16  7  1  0  0  0  0
 17  4  1  0  0  0  0
 18  4  1  0  0  0  0
 19  4  1  0  0  0  0
 20 24  1  0  0  0  0
 21  6  1  0  0  0  0
 22 23  1  0  0  0  0
 23 16  1  0  0  0  0
 24 22  2  0  0  0  0
 25 21  1  0  0  0  0
 26 25  1  0  0  0  0
 27 25  1  0  0  0  0
  3  6  2  0  0  0  0
  9  8  1  0  0  0  0
 13 11  1  0  0  0  0
M  END
>  <ID> (7845540)
7845540

>  <Supplier> (7845540)
ChemBridge

>  <clogP> (7845540)
4.576000000000001e+000

>  <RB> (7845540)
4

>  <tPSA> (7845540)
7.136000000000000e+001

>  <Hacc> (7845540)
5

>  <Hdon> (7845540)
1

>  <LogSw> (7845540)
-5.925000000000000e+000

>  <Group> (7845540)
1

>  <Core> (7845540)
195

$$$$
9025824
  -ISIS-  03310818282D

 26 27  0  0  0  0  0  0  0  0999 V2000
    1.7792   -3.2542    0.0000 C   0  0  0  0  0  0  0  0  0  0  0  0
    3.9417   -4.4917    0.0000 N   0  0  3  0  0  0  0  0  0  0  0  0
    9.6917   -4.4917    0.0000 C   0  0  0  0  0  0  0  0  0  0  0  0
    2.5042   -3.6667    0.0000 C   0  0  3  0  0  0  0  0  0  0  0  0
    9.6917   -3.6667    0.0000 C   0  0  0  0  0  0  0  0  0  0  0  0
    8.9750   -4.9125    0.0000 C   0  0  0  0  0  0  0  0  0  0  0  0
    1.7792   -2.4375    0.0000 O   0  0  0  0  0  0  0  0  0  0  0  0
    8.9750   -3.2542    0.0000 C   0  0  0  0  0  0  0  0  0  0  0  0
    3.2167   -3.2542    0.0000 C   0  0  0  0  0  0  0  0  0  0  0  0
    2.5042   -4.4917    0.0000 C   0  0  0  0  0  0  0  0  0  0  0  0
    3.2167   -4.9125    0.0000 C   0  0  0  0  0  0  0  0  0  0  0  0
    3.9417   -3.6667    0.0000 C   0  0  0  0  0  0  0  0  0  0  0  0
    8.2542   -4.4917    0.0000 C   0  0  0  0  0  0  0  0  0  0  0  0
    1.0625   -3.6667    0.0000 O   0  0  0  0  0  0  0  0  0  0  0  0
    8.2542   -3.6667    0.0000 C   0  0  0  0  0  0  0  0  0  0  0  0
    4.9875   -1.5417    0.0000 Cl  0  0  0  0  0  0  0  0  0  0  0  0
    7.5292   -4.9125    0.0000 O   0  0  0  0  0  0  0  0  0  0  0  0
    4.6542   -4.9125    0.0000 C   0  0  0  0  0  0  0  0  0  0  0  0
   10.4792   -4.7542    0.0000 C   0  0  0  0  0  0  0  0  0  0  0  0
   10.9542   -4.0792    0.0000 C   0  0  0  0  0  0  0  0  0  0  0  0
   10.4792   -3.4167    0.0000 C   0  0  0  0  0  0  0  0  0  0  0  0
    0.3542   -3.2542    0.0000 C   0  0  0  0  0  0  0  0  0  0  0  0
    6.8167   -4.4917    0.0000 C   0  0  0  0  0  0  0  0  0  0  0  0
    5.3792   -4.4917    0.0000 C   0  0  0  0  0  0  0  0  0  0  0  0
    6.0917   -4.9125    0.0000 C   0  0  0  0  0  0  0  0  0  0  0  0
   -0.3625   -3.6667    0.0000 C   0  0  0  0  0  0  0  0  0  0  0  0
  2 11  1  0  0  0  0
  3  6  2  0  0  0  0
  4  1  1  0  0  0  0
  5  8  2  0  0  0  0
  6 13  1  0  0  0  0
  7  1  2  0  0  0  0
  8 15  1  0  0  0  0
  9  4  1  0  0  0  0
 10  4  1  0  0  0  0
 11 10  1  0  0  0  0
 12  9  1  0  0  0  0
 13 17  1  0  0  0  0
 14  1  1  0  0  0  0
 15 13  2  0  0  0  0
 17 23  1  0  0  0  0
 18  2  1  0  0  0  0
 19  3  1  0  0  0  0
 20 19  1  0  0  0  0
 21  5  1  0  0  0  0
 22 14  1  0  0  0  0
 23 25  1  0  0  0  0
 24 18  1  0  0  0  0
 25 24  1  0  0  0  0
 26 22  1  0  0  0  0
  2 12  1  0  0  0  0
  3  5  1  0  0  0  0
 21 20  1  0  0  0  0
M  END
>  <ID> (9025824)
9025824

>  <Supplier> (9025824)
ChemBridge

>  <clogP> (9025824)
3.340000000000000e+000

>  <RB> (9025824)
7

>  <tPSA> (9025824)
3.877000000000000e+001

>  <Hacc> (9025824)
4

>  <Hdon> (9025824)
0

>  <LogSw> (9025824)
-3.563000000000000e+000

>  <Group> (9025824)
2

>  <Core> (9025824)
105

$$$$
7158700
  -ISIS-  03310818252D

 24 25  0  0  0  0  0  0  0  0999 V2000
    3.0000    1.1500    0.0000 C   0  0  0  0  0  0  0  0  0  0  0  0
    2.5167    0.3708    0.0000 S   0  0  0  0  0  0  0  0  0  0  0  0
    1.6042    0.6000    0.0000 C   0  0  0  0  0  0  0  0  0  0  0  0
    2.4375    1.8208    0.0000 N   0  0  0  0  0  0  0  0  0  0  0  0
    3.9292    1.2333    0.0000 C   0  0  3  0  0  0  0  0  0  0  0  0
    1.5792    1.4958    0.0000 N   0  0  0  0  0  0  0  0  0  0  0  0
    0.9042    0.0000    0.0000 N   0  0  0  0  0  0  0  0  0  0  0  0
    0.0000    0.0000    0.0000 C   0  0  0  0  0  0  0  0  0  0  0  0
   -2.8208    3.1333    0.0000 C   0  0  0  0  0  0  0  0  0  0  0  0
   -1.9833    3.4833    0.0000 C   0  0  0  0  0  0  0  0  0  0  0  0
   -3.5458    3.7083    0.0000 C   0  0  0  0  0  0  0  0  0  0  0  0
   -0.2333   -0.9042    0.0000 O   0  0  0  0  0  0  0  0  0  0  0  0
    4.0292    0.3333    0.0000 F   0  0  0  0  0  0  0  0  0  0  0  0
    3.8292    2.1833    0.0000 F   0  0  0  0  0  0  0  0  0  0  0  0
    4.8542    1.3458    0.0000 F   0  0  0  0  0  0  0  0  0  0  0  0
   -1.8458    4.3875    0.0000 C   0  0  0  0  0  0  0  0  0  0  0  0
   -3.4333    4.6042    0.0000 C   0  0  0  0  0  0  0  0  0  0  0  0
   -2.5958    4.9542    0.0000 C   0  0  0  0  0  0  0  0  0  0  0  0
   -4.1833    5.1542    0.0000 Cl  0  0  0  0  0  0  0  0  0  0  0  0
   -1.2625    2.9333    0.0000 O   0  0  0  0  0  0  0  0  0  0  0  0
   -0.7458    0.5625    0.0000 C   0  0  0  0  0  0  0  0  0  0  0  0
   -2.9625    2.2208    0.0000 C   0  0  0  0  0  0  0  0  0  0  0  0
   -1.3500    2.0458    0.0000 C   0  0  0  0  0  0  0  0  0  0  0  0
   -0.6333    1.4625    0.0000 C   0  0  0  0  0  0  0  0  0  0  0  0
  2  1  1  0  0  0  0
  3  2  1  0  0  0  0
  4  1  2  0  0  0  0
  5  1  1  0  0  0  0
  6  4  1  0  0  0  0
  7  3  1  0  0  0  0
  8  7  1  0  0  0  0
  9 10  1  0  0  0  0
 10 20  1  0  0  0  0
 11  9  2  0  0  0  0
 12  8  2  0  0  0  0
 13  5  1  0  0  0  0
 14  5  1  0  0  0  0
 15  5  1  0  0  0  0
 16 10  2  0  0  0  0
 17 18  2  0  0  0  0
 18 16  1  0  0  0  0
 19 17  1  0  0  0  0
 20 23  1  0  0  0  0
 21  8  1  0  0  0  0
 22  9  1  0  0  0  0
 23 24  1  0  0  0  0
 24 21  1  0  0  0  0
  3  6  2  0  0  0  0
 17 11  1  0  0  0  0
M  END
>  <ID> (7158700)
7158700

>  <Supplier> (7158700)
ChemBridge

>  <clogP> (7158700)
4.090000000000000e+000

>  <RB> (7158700)
6

>  <tPSA> (7158700)
6.411000000000000e+001

>  <Hacc> (7158700)
4

>  <Hdon> (7158700)
1

>  <LogSw> (7158700)
-5.462000000000000e+000

>  <Group> (7158700)
3

>  <Core> (7158700)
246

$$$$
7845547
  -ISIS-  03310818272D

 34 38  0  0  0  0  0  0  0  0999 V2000
    5.4292    2.4083    0.0000 C   0  0  0  0  0  0  0  0  0  0  0  0
    6.0792    2.7833    0.0000 C   0  0  0  0  0  0  0  0  0  0  0  0
    6.3375    1.5958    0.0000 N   0  0  3  0  0  0  0  0  0  0  0  0
    6.6417    2.2833    0.0000 C   0  0  0  0  0  0  0  0  0  0  0  0
    4.7875    2.7833    0.0000 C   0  0  0  0  0  0  0  0  0  0  0  0
    5.5917    1.6708    0.0000 C   0  0  3  0  0  0  0  0  0  0  0  0
    6.0792    3.5333    0.0000 O   0  0  0  0  0  0  0  0  0  0  0  0
    4.7875    3.5333    0.0000 C   0  0  0  0  0  0  0  0  0  0  0  0
    3.5792   -0.5542    0.0000 N   0  3  0  0  0  0  0  0  0  0  0  0
    5.4292    3.9083    0.0000 C   0  0  0  0  0  0  0  0  0  0  0  0
    6.7125    0.9458    0.0000 C   0  0  0  0  0  0  0  0  0  0  0  0
    4.0875    0.0000    0.0000 C   0  0  0  0  0  0  0  0  0  0  0  0
    5.0875    1.1125    0.0000 C   0  0  0  0  0  0  0  0  0  0  0  0
    2.8500   -0.4042    0.0000 O   0  5  0  0  0  0  0  0  0  0  0  0
    7.3750    2.4333    0.0000 O   0  0  0  0  0  0  0  0  0  0  0  0
    4.1375    2.4083    0.0000 O   0  0  0  0  0  0  0  0  0  0  0  0
    4.1375    3.9083    0.0000 C   0  0  0  0  0  0  0  0  0  0  0  0
    3.8167   -1.2667    0.0000 O   0  0  0  0  0  0  0  0  0  0  0  0
    5.4292    4.6500    0.0000 C   0  0  0  0  0  0  0  0  0  0  0  0
    4.8167   -0.1542    0.0000 C   0  0  0  0  0  0  0  0  0  0  0  0
    3.8542    0.7125    0.0000 C   0  0  0  0  0  0  0  0  0  0  0  0
    5.3167    0.4000    0.0000 C   0  0  0  0  0  0  0  0  0  0  0  0
    4.3542    1.2708    0.0000 C   0  0  0  0  0  0  0  0  0  0  0  0
    4.1375    4.6500    0.0000 C   0  0  0  0  0  0  0  0  0  0  0  0
    7.4500    1.0750    0.0000 C   0  0  0  0  0  0  0  0  0  0  0  0
    8.9292    1.3333    0.0000 C   0  0  0  0  0  0  0  0  0  0  0  0
    4.7875    5.0250    0.0000 C   0  0  0  0  0  0  0  0  0  0  0  0
    3.4875    5.0250    0.0000 Br  0  0  0  0  0  0  0  0  0  0  0  0
    7.9292    0.5000    0.0000 C   0  0  0  0  0  0  0  0  0  0  0  0
    7.7042    1.7833    0.0000 C   0  0  0  0  0  0  0  0  0  0  0  0
    8.4417    1.9083    0.0000 C   0  0  0  0  0  0  0  0  0  0  0  0
    8.6667    0.6333    0.0000 C   0  0  0  0  0  0  0  0  0  0  0  0
    9.6667    1.4625    0.0000 O   0  0  0  0  0  0  0  0  0  0  0  0
   10.1417    0.8875    0.0000 C   0  0  0  0  0  0  0  0  0  0  0  0
  2  1  2  0  0  0  0
  3  6  1  0  0  0  0
  4  2  1  0  0  0  0
  5  1  1  0  0  0  0
  6  1  1  0  0  0  0
  7  2  1  0  0  0  0
  8  5  1  0  0  0  0
  9 12  1  0  0  0  0
 10  8  2  0  0  0  0
 11  3  1  0  0  0  0
 12 21  1  0  0  0  0
 13  6  1  0  0  0  0
 14  9  1  0  0  0  0
 15  4  2  0  0  0  0
 16  5  2  0  0  0  0
 17  8  1  0  0  0  0
 18  9  2  0  0  0  0
 19 10  1  0  0  0  0
 20 22  1  0  0  0  0
 21 23  2  0  0  0  0
 22 13  2  0  0  0  0
 23 13  1  0  0  0  0
 24 17  2  0  0  0  0
 25 11  1  0  0  0  0
 26 31  2  0  0  0  0
 27 24  1  0  0  0  0
 28 24  1  0  0  0  0
 29 25  1  0  0  0  0
 30 25  2  0  0  0  0
 31 30  1  0  0  0  0
 32 29  2  0  0  0  0
 33 26  1  0  0  0  0
 34 33  1  0  0  0  0
  3  4  1  0  0  0  0
  7 10  1  0  0  0  0
 12 20  2  0  0  0  0
 19 27  2  0  0  0  0
 32 26  1  0  0  0  0
M  CHG  2   9   1  14  -1
M  END
>  <ID> (7845547)
7845547

>  <Supplier> (7845547)
ChemBridge

>  <clogP> (7845547)
4.169000000000000e+000

>  <RB> (7845547)
3

>  <tPSA> (7845547)
1.028900000000000e+002

>  <Hacc> (7845547)
6

>  <Hdon> (7845547)
0

>  <LogSw> (7845547)
-6.950000000000000e+000

>  <Group> (7845547)
1

>  <Core> (7845547)
082

$$$$
6429760
  -ISIS-  03310818232D

 22 23  0  0  0  0  0  0  0  0999 V2000
    2.5042    0.3250    0.0000 C   0  0  0  0  0  0  0  0  0  0  0  0
    3.2250    0.7333    0.0000 N   0  0  0  0  0  0  0  0  0  0  0  0
    4.5250    1.4833    0.0000 N   0  0  0  0  0  0  0  0  0  0  0  0
    3.8667    0.3583    0.0000 C   0  0  0  0  0  0  0  0  0  0  0  0
    4.5167    0.7333    0.0000 C   0  0  0  0  0  0  0  0  0  0  0  0
    5.1792    1.8583    0.0000 C   0  0  0  0  0  0  0  0  0  0  0  0
    1.8542    0.7083    0.0000 C   0  0  3  0  0  0  0  0  0  0  0  0
    1.2042    0.3375    0.0000 O   0  0  0  0  0  0  0  0  0  0  0  0
    2.5000   -0.5000    0.0000 O   0  0  0  0  0  0  0  0  0  0  0  0
    5.1792    2.6083    0.0000 O   0  0  0  0  0  0  0  0  0  0  0  0
    0.5625    0.7208    0.0000 C   0  0  0  0  0  0  0  0  0  0  0  0
    3.8667   -0.3917    0.0000 C   0  0  0  0  0  0  0  0  0  0  0  0
    5.1667    0.3500    0.0000 C   0  0  0  0  0  0  0  0  0  0  0  0
    5.8292    1.4708    0.0000 C   0  0  0  0  0  0  0  0  0  0  0  0
    1.8667    1.4583    0.0000 C   0  0  0  0  0  0  0  0  0  0  0  0
    0.5667    1.4708    0.0000 C   0  0  0  0  0  0  0  0  0  0  0  0
   -0.0958    0.3583    0.0000 C   0  0  0  0  0  0  0  0  0  0  0  0
    4.5125   -0.7667    0.0000 C   0  0  0  0  0  0  0  0  0  0  0  0
    5.1667   -0.4000    0.0000 C   0  0  0  0  0  0  0  0  0  0  0  0
   -0.7375    0.7375    0.0000 C   0  0  0  0  0  0  0  0  0  0  0  0
   -0.0750    1.8583    0.0000 C   0  0  0  0  0  0  0  0  0  0  0  0
   -0.7333    1.4875    0.0000 C   0  0  0  0  0  0  0  0  0  0  0  0
  2  1  1  0  0  0  0
  3  5  1  0  0  0  0
  4  2  1  0  0  0  0
  5  4  1  0  0  0  0
  6  3  1  0  0  0  0
  7  1  1  0  0  0  0
  8  7  1  0  0  0  0
  9  1  2  0  0  0  0
 10  6  2  0  0  0  0
 11  8  1  0  0  0  0
 12  4  2  0  0  0  0
 13  5  2  0  0  0  0
 14  6  1  0  0  0  0
 15  7  1  0  0  0  0
 16 11  1  0  0  0  0
 17 11  2  0  0  0  0
 18 12  1  0  0  0  0
 19 18  2  0  0  0  0
 20 17  1  0  0  0  0
 21 16  2  0  0  0  0
 22 20  2  0  0  0  0
 19 13  1  0  0  0  0
 22 21  1  0  0  0  0
M  END
>  <ID> (6429760)
6429760

>  <Supplier> (6429760)
ChemBridge

>  <clogP> (6429760)
1.790000000000000e+000

>  <RB> (6429760)
5

>  <tPSA> (6429760)
6.743000000000001e+001

>  <Hacc> (6429760)
3

>  <Hdon> (6429760)
2

>  <LogSw> (6429760)
-2.905000000000000e+000

>  <Group> (6429760)
3

>  <Core> (6429760)
155

$$$$
5321259
  -ISIS-  03310818212D

 22 24  0  0  0  0  0  0  0  0999 V2000
   -2.0458   -0.1042    0.0000 C   0  0  0  0  0  0  0  0  0  0  0  0
   -2.4625    0.4958    0.0000 C   0  0  0  0  0  0  0  0  0  0  0  0
   -2.4625   -0.7292    0.0000 S   0  0  0  0  0  0  0  0  0  0  0  0
   -3.1833    0.2708    0.0000 C   0  0  0  0  0  0  0  0  0  0  0  0
   -1.2833   -0.1042    0.0000 N   0  0  0  0  0  0  0  0  0  0  0  0
   -3.1833   -0.4875    0.0000 C   0  0  0  0  0  0  0  0  0  0  0  0
   -0.9000   -0.7667    0.0000 C   0  0  0  0  0  0  0  0  0  0  0  0
   -2.2208    1.2125    0.0000 C   0  0  0  0  0  0  0  0  0  0  0  0
   -0.1208   -0.7667    0.0000 C   0  0  0  0  0  0  0  0  0  0  0  0
   -1.2833   -1.4292    0.0000 O   0  0  0  0  0  0  0  0  0  0  0  0
   -2.7208    1.7958    0.0000 O   0  0  0  0  0  0  0  0  0  0  0  0
    0.2542   -0.1042    0.0000 C   0  0  0  0  0  0  0  0  0  0  0  0
    0.2542   -1.4292    0.0000 C   0  0  0  0  0  0  0  0  0  0  0  0
   -1.4833    1.3708    0.0000 N   0  0  0  0  0  0  0  0  0  0  0  0
    1.4000   -0.7667    0.0000 C   0  0  0  0  0  0  0  0  0  0  0  0
   -3.8458    0.6500    0.0000 C   0  0  0  0  0  0  0  0  0  0  0  0
    1.0167   -0.1042    0.0000 C   0  0  0  0  0  0  0  0  0  0  0  0
    1.0167   -1.4500    0.0000 C   0  0  0  0  0  0  0  0  0  0  0  0
   -3.8458   -0.8667    0.0000 C   0  0  0  0  0  0  0  0  0  0  0  0
    2.1542   -0.7500    0.0000 F   0  0  0  0  0  0  0  0  0  0  0  0
   -4.5000    0.2708    0.0000 C   0  0  0  0  0  0  0  0  0  0  0  0
   -4.5000   -0.4875    0.0000 C   0  0  0  0  0  0  0  0  0  0  0  0
  2  1  2  0  0  0  0
  3  1  1  0  0  0  0
  4  2  1  0  0  0  0
  5  1  1  0  0  0  0
  6  3  1  0  0  0  0
  7  5  1  0  0  0  0
  8  2  1  0  0  0  0
  9  7  1  0  0  0  0
 10  7  2  0  0  0  0
 11  8  2  0  0  0  0
 12  9  2  0  0  0  0
 13  9  1  0  0  0  0
 14  8  1  0  0  0  0
 15 18  1  0  0  0  0
 16  4  1  0  0  0  0
 17 12  1  0  0  0  0
 18 13  2  0  0  0  0
 19  6  1  0  0  0  0
 20 15  1  0  0  0  0
 21 16  1  0  0  0  0
 22 19  1  0  0  0  0
  6  4  2  0  0  0  0
 22 21  1  0  0  0  0
 17 15  2  0  0  0  0
M  END
>  <ID> (5321259)
5321259

>  <Supplier> (5321259)
ChemBridge

>  <clogP> (5321259)
3.330000000000000e+000

>  <RB> (5321259)
3

>  <tPSA> (5321259)
7.219000000000000e+001

>  <Hacc> (5321259)
2

>  <Hdon> (5321259)
2

>  <LogSw> (5321259)
-4.366000000000000e+000

>  <Group> (5321259)
3

>  <Core> (5321259)
097

$$$$
6429765
  -ISIS-  03310818232D

 21 22  0  0  0  0  0  0  0  0999 V2000
   -2.8833   -1.2167    0.0000 C   0  0  0  0  0  0  0  0  0  0  0  0
   -3.3708   -2.0042    0.0000 C   0  0  0  0  0  0  0  0  0  0  0  0
   -3.3125   -0.4000    0.0000 N   0  0  0  0  0  0  0  0  0  0  0  0
   -2.8208    0.3958    0.0000 C   0  0  0  0  0  0  0  0  0  0  0  0
   -1.9708   -1.2500    0.0000 C   0  0  0  0  0  0  0  0  0  0  0  0
   -4.2958   -1.9875    0.0000 C   0  0  0  0  0  0  0  0  0  0  0  0
   -4.8333   -2.7167    0.0000 O   0  0  0  0  0  0  0  0  0  0  0  0
   -1.8833    0.3708    0.0000 O   0  0  0  0  0  0  0  0  0  0  0  0
   -3.2708    1.2000    0.0000 C   0  0  0  0  0  0  0  0  0  0  0  0
   -4.7833   -1.2375    0.0000 C   0  0  0  0  0  0  0  0  0  0  0  0
   -1.5458   -2.0542    0.0000 O   0  0  0  0  0  0  0  0  0  0  0  0
   -5.7208   -2.4000    0.0000 C   0  0  0  0  0  0  0  0  0  0  0  0
   -5.6958   -1.4875    0.0000 C   0  0  0  0  0  0  0  0  0  0  0  0
   -1.4625   -0.4667    0.0000 O   0  0  0  0  0  0  0  0  0  0  0  0
   -2.7958    2.0208    0.0000 C   0  0  0  0  0  0  0  0  0  0  0  0
   -4.2083    1.2000    0.0000 C   0  0  0  0  0  0  0  0  0  0  0  0
   -0.5500   -0.5042    0.0000 C   0  0  0  0  0  0  0  0  0  0  0  0
   -0.0625    0.2708    0.0000 C   0  0  0  0  0  0  0  0  0  0  0  0
   -4.6708    2.0208    0.0000 C   0  0  0  0  0  0  0  0  0  0  0  0
   -3.2625    2.8208    0.0000 C   0  0  0  0  0  0  0  0  0  0  0  0
   -4.1958    2.8208    0.0000 C   0  0  0  0  0  0  0  0  0  0  0  0
  2  1  2  0  0  0  0
  3  1  1  0  0  0  0
  4  3  1  0  0  0  0
  5  1  1  0  0  0  0
  6  2  1  0  0  0  0
  7  6  1  0  0  0  0
  8  4  2  0  0  0  0
  9  4  1  0  0  0  0
 10  6  2  0  0  0  0
 11  5  2  0  0  0  0
 12  7  1  0  0  0  0
 13 10  1  0  0  0  0
 14  5  1  0  0  0  0
 15  9  2  0  0  0  0
 16  9  1  0  0  0  0
 17 14  1  0  0  0  0
 18 17  1  0  0  0  0
 19 16  2  0  0  0  0
 20 15  1  0  0  0  0
 21 19  1  0  0  0  0
 13 12  2  0  0  0  0
 20 21  2  0  0  0  0
M  END
>  <ID> (6429765)
6429765

>  <Supplier> (6429765)
ChemBridge

>  <clogP> (6429765)
2.840000000000000e+000

>  <RB> (6429765)
4

>  <tPSA> (6429765)
6.854000000000001e+001

>  <Hacc> (6429765)
4

>  <Hdon> (6429765)
1

>  <LogSw> (6429765)
-3.706000000000000e+000

>  <Group> (6429765)
1

>  <Core> (6429765)
008

$$$$
7677608
  -ISIS-  03310818262D

 36 39  0  0  0  0  0  0  0  0999 V2000
    2.1250    0.0083    0.0000 N   0  0  3  0  0  0  0  0  0  0  0  0
    2.8417   -0.1875    0.0000 C   0  0  0  0  0  0  0  0  0  0  0  0
    3.1875    1.0583    0.0000 C   0  0  3  0  0  0  0  0  0  0  0  0
   -2.3750    0.0333    0.0000 N   0  0  3  0  0  0  0  0  0  0  0  0
    2.4667    1.2625    0.0000 C   0  0  0  0  0  0  0  0  0  0  0  0
    3.7250    1.5833    0.0000 C   0  0  0  0  0  0  0  0  0  0  0  0
   -1.6333   -0.4042    0.0000 C   0  0  0  0  0  0  0  0  0  0  0  0
    3.3875    0.3458    0.0000 C   0  0  0  0  0  0  0  0  0  0  0  0
    1.3750   -0.4167    0.0000 C   0  0  0  0  0  0  0  0  0  0  0  0
    4.4417    1.3833    0.0000 N   0  0  0  0  0  0  0  0  0  0  0  0
    3.0292   -0.9167    0.0000 O   0  0  0  0  0  0  0  0  0  0  0  0
   -3.1208   -0.4042    0.0000 C   0  0  3  0  0  0  0  0  0  0  0  0
   -2.3708    0.8958    0.0000 C   0  0  3  0  0  0  0  0  0  0  0  0
   -1.6333   -1.2667    0.0000 C   0  0  0  0  0  0  0  0  0  0  0  0
    3.5375    2.3083    0.0000 O   0  0  0  0  0  0  0  0  0  0  0  0
   -0.8875    0.0250    0.0000 O   0  0  0  0  0  0  0  0  0  0  0  0
    1.3667   -1.2875    0.0000 C   0  0  0  0  0  0  0  0  0  0  0  0
    0.6292    0.0208    0.0000 C   0  0  0  0  0  0  0  0  0  0  0  0
   -0.8833   -1.7042    0.0000 O   0  0  0  0  0  0  0  0  0  0  0  0
    4.6292    0.6583    0.0000 C   0  0  0  0  0  0  0  0  0  0  0  0
   -0.1208   -1.2750    0.0000 C   0  0  0  0  0  0  0  0  0  0  0  0
    5.3542    0.4583    0.0000 C   0  0  0  0  0  0  0  0  0  0  0  0
    6.8000    0.0500    0.0000 C   0  0  0  0  0  0  0  0  0  0  0  0
   -0.1125   -0.4042    0.0000 C   0  0  0  0  0  0  0  0  0  0  0  0
    0.6167   -1.7042    0.0000 C   0  0  0  0  0  0  0  0  0  0  0  0
    5.5417   -0.2750    0.0000 C   0  0  0  0  0  0  0  0  0  0  0  0
    5.8875    0.9833    0.0000 C   0  0  0  0  0  0  0  0  0  0  0  0
    6.6125    0.7833    0.0000 C   0  0  0  0  0  0  0  0  0  0  0  0
    6.2625   -0.4750    0.0000 C   0  0  0  0  0  0  0  0  0  0  0  0
    7.5250   -0.1500    0.0000 O   0  0  0  0  0  0  0  0  0  0  0  0
   -3.8583    0.8958    0.0000 C   0  0  0  0  0  0  0  0  0  0  0  0
   -3.1125    1.3208    0.0000 C   0  0  0  0  0  0  0  0  0  0  0  0
   -3.8625    0.0333    0.0000 C   0  0  0  0  0  0  0  0  0  0  0  0
   -3.1208   -1.2667    0.0000 C   0  0  0  0  0  0  0  0  0  0  0  0
   -1.6250    1.3208    0.0000 C   0  0  0  0  0  0  0  0  0  0  0  0
    7.7125   -0.8792    0.0000 C   0  0  0  0  0  0  0  0  0  0  0  0
  2  1  1  0  0  0  0
  3  5  1  0  0  0  0
  4  7  1  0  0  0  0
  5  1  1  0  0  0  0
  6  3  1  0  0  0  0
  7 14  1  0  0  0  0
  8  2  1  0  0  0  0
  9  1  1  0  0  0  0
 10  6  1  0  0  0  0
 11  2  2  0  0  0  0
 12  4  1  0  0  0  0
 13  4  1  0  0  0  0
 14 19  1  0  0  0  0
 15  6  2  0  0  0  0
 16  7  2  0  0  0  0
 17  9  1  0  0  0  0
 18  9  2  0  0  0  0
 19 21  1  0  0  0  0
 20 10  1  0  0  0  0
 21 24  2  0  0  0  0
 22 20  1  0  0  0  0
 23 28  1  0  0  0  0
 24 18  1  0  0  0  0
 25 17  2  0  0  0  0
 26 22  2  0  0  0  0
 27 22  1  0  0  0  0
 28 27  2  0  0  0  0
 29 26  1  0  0  0  0
 30 23  1  0  0  0  0
 31 32  1  0  0  0  0
 32 13  1  0  0  0  0
 33 12  1  0  0  0  0
 34 12  1  0  0  0  0
 35 13  1  0  0  0  0
 36 30  1  0  0  0  0
  8  3  1  0  0  0  0
 21 25  1  0  0  0  0
 23 29  2  0  0  0  0
 33 31  1  0  0  0  0
M  END
>  <ID> (7677608)
7677608

>  <Supplier> (7677608)
ChemBridge

>  <clogP> (7677608)
4.474000000000000e+000

>  <RB> (7677608)
7

>  <tPSA> (7677608)
8.818000000000001e+001

>  <Hacc> (7677608)
5

>  <Hdon> (7677608)
1

>  <LogSw> (7677608)
-4.891000000000000e+000

>  <Group> (7677608)
1

>  <Core> (7677608)
124

$$$$
6039965
  -ISIS-  03310818232D

 26 26  0  0  0  0  0  0  0  0999 V2000
    0.9292    0.9000    0.0000 N   0  0  3  0  0  0  0  0  0  0  0  0
    2.0000    0.9625    0.0000 N   0  0  3  0  0  0  0  0  0  0  0  0
    1.4375    1.3708    0.0000 C   0  0  0  0  0  0  0  0  0  0  0  0
    1.7542    0.3708    0.0000 C   0  0  3  0  0  0  0  0  0  0  0  0
    1.2292    0.3708    0.0000 C   0  0  3  0  0  0  0  0  0  0  0  0
    2.0167    0.0000    0.0000 N   0  0  0  0  0  0  0  0  0  0  0  0
    0.9000   -0.0167    0.0000 N   0  0  0  0  0  0  0  0  0  0  0  0
    0.3667    0.0000    0.0000 C   0  0  0  0  0  0  0  0  0  0  0  0
    2.5792    0.0625    0.0000 C   0  0  0  0  0  0  0  0  0  0  0  0
    0.0292   -0.4292    0.0000 N   0  0  0  0  0  0  0  0  0  0  0  0
    2.9375   -0.3292    0.0000 N   0  0  0  0  0  0  0  0  0  0  0  0
    1.4375    1.7458    0.0000 O   0  0  0  0  0  0  0  0  0  0  0  0
    0.2292    0.4500    0.0000 O   0  0  0  0  0  0  0  0  0  0  0  0
    2.7375    0.4958    0.0000 O   0  0  0  0  0  0  0  0  0  0  0  0
   -0.4625   -0.3875    0.0000 C   0  0  3  0  0  0  0  0  0  0  0  0
    3.4500   -0.3042    0.0000 C   0  0  3  0  0  0  0  0  0  0  0  0
    0.2042    1.1958    0.0000 C   0  0  0  0  0  0  0  0  0  0  0  0
    2.6292    1.3500    0.0000 C   0  0  0  0  0  0  0  0  0  0  0  0
   -0.8458    0.4500    0.0000 O   0  0  0  0  0  0  0  0  0  0  0  0
    3.9167    0.3708    0.0000 O   0  0  0  0  0  0  0  0  0  0  0  0
   -0.4625    0.0833    0.0000 C   0  0  0  0  0  0  0  0  0  0  0  0
    3.4500    0.1208    0.0000 C   0  0  0  0  0  0  0  0  0  0  0  0
   -0.4625   -0.9792    0.0000 C   0  0  0  0  0  0  0  0  0  0  0  0
    3.4500   -0.8000    0.0000 C   0  0  0  0  0  0  0  0  0  0  0  0
    3.9500   -0.2875    0.0000 C   0  0  0  0  0  0  0  0  0  0  0  0
   -1.0625   -0.3875    0.0000 C   0  0  0  0  0  0  0  0  0  0  0  0
  2  3  1  0  0  0  0
  3  1  1  0  0  0  0
  4  5  1  0  0  0  0
  5  1  1  0  0  0  0
  6  4  1  0  0  0  0
  7  5  1  0  0  0  0
  8  7  1  0  0  0  0
  9  6  1  0  0  0  0
 10  8  1  0  0  0  0
 11  9  1  0  0  0  0
 12  3  2  0  0  0  0
 13  8  2  0  0  0  0
 14  9  2  0  0  0  0
 15 10  1  0  0  0  0
 16 11  1  0  0  0  0
 17  1  1  0  0  0  0
 18  2  1  0  0  0  0
 19 21  1  0  0  0  0
 20 22  1  0  0  0  0
 21 15  1  0  0  0  0
 22 16  1  0  0  0  0
 23 15  1  0  0  0  0
 24 16  1  0  0  0  0
 25 16  1  0  0  0  0
 26 15  1  0  0  0  0
  2  4  1  0  0  0  0
M  END
>  <ID> (6039965)
6039965

>  <Supplier> (6039965)
ChemBridge

>  <clogP> (6039965)
-9.800000000000004e+000

>  <RB> (6039965)
6

>  <tPSA> (6039965)
1.462700000000000e+002

>  <Hacc> (6039965)
5

>  <Hdon> (6039965)
6

>  <LogSw> (6039965)
4.270000000000002e-001

>  <Group> (6039965)
3

$$$$
7677606
  -ISIS-  03310818262D

 23 24  0  0  0  0  0  0  0  0999 V2000
    2.3417   -5.5667    0.0000 S   0  0  3  0  0  0  0  0  0  0  0  0
    3.7667   -3.9167    0.0000 C   0  0  0  0  0  0  0  0  0  0  0  0
    4.4875   -4.3292    0.0000 C   0  0  0  0  0  0  0  0  0  0  0  0
    3.0542   -5.1542    0.0000 N   0  0  3  0  0  0  0  0  0  0  0  0
    3.0542   -4.3292    0.0000 C   0  0  0  0  0  0  0  0  0  0  0  0
    5.2000   -3.9125    0.0000 N   0  0  0  0  0  0  0  0  0  0  0  0
    2.7500   -6.2792    0.0000 O   0  0  0  0  0  0  0  0  0  0  0  0
    1.9250   -6.2792    0.0000 O   0  0  0  0  0  0  0  0  0  0  0  0
    7.3417   -4.3292    0.0000 C   0  0  0  0  0  0  0  0  0  0  0  0
    5.9167   -4.3292    0.0000 C   0  0  0  0  0  0  0  0  0  0  0  0
    4.4875   -5.1542    0.0000 O   0  0  0  0  0  0  0  0  0  0  0  0
    6.6250   -3.9125    0.0000 C   0  0  0  0  0  0  0  0  0  0  0  0
    7.3375   -5.1625    0.0000 C   0  0  0  0  0  0  0  0  0  0  0  0
    6.6167   -5.5667    0.0000 C   0  0  0  0  0  0  0  0  0  0  0  0
    1.6250   -5.1542    0.0000 C   0  0  0  0  0  0  0  0  0  0  0  0
    5.9125   -5.1542    0.0000 C   0  0  0  0  0  0  0  0  0  0  0  0
    3.7667   -3.0875    0.0000 C   0  0  0  0  0  0  0  0  0  0  0  0
    3.7667   -5.5667    0.0000 C   0  0  0  0  0  0  0  0  0  0  0  0
    2.3417   -3.9167    0.0000 C   0  0  0  0  0  0  0  0  0  0  0  0
    8.0625   -3.9167    0.0000 C   0  0  0  0  0  0  0  0  0  0  0  0
    8.0542   -5.5750    0.0000 C   0  0  0  0  0  0  0  0  0  0  0  0
    3.0542   -2.6750    0.0000 C   0  0  0  0  0  0  0  0  0  0  0  0
    2.3417   -3.0875    0.0000 C   0  0  0  0  0  0  0  0  0  0  0  0
  2  5  2  0  0  0  0
  3  2  1  0  0  0  0
  4  1  1  0  0  0  0
  5  4  1  0  0  0  0
  6  3  1  0  0  0  0
  7  1  2  0  0  0  0
  8  1  2  0  0  0  0
  9 12  2  0  0  0  0
 10  6  1  0  0  0  0
 11  3  2  0  0  0  0
 12 10  1  0  0  0  0
 13 14  2  0  0  0  0
 14 16  1  0  0  0  0
 15  1  1  0  0  0  0
 16 10  2  0  0  0  0
 17  2  1  0  0  0  0
 18  4  1  0  0  0  0
 19  5  1  0  0  0  0
 20  9  1  0  0  0  0
 21 13  1  0  0  0  0
 22 23  1  0  0  0  0
 23 19  2  0  0  0  0
 22 17  2  0  0  0  0
  9 13  1  0  0  0  0
M  END
>  <ID> (7677606)
7677606

>  <Supplier> (7677606)
ChemBridge

>  <clogP> (7677606)
1.308000000000000e+000

>  <RB> (7677606)
3

>  <tPSA> (7677606)
6.647999999999998e+001

>  <Hacc> (7677606)
3

>  <Hdon> (7677606)
1

>  <LogSw> (7677606)
-4.645000000000000e+000

>  <Group> (7677606)
2

>  <Core> (7677606)
142

$$$$
5321252
  -ISIS-  03310818212D

 20 21  0  0  0  0  0  0  0  0999 V2000
   -2.0458    0.2125    0.0000 C   0  0  0  0  0  0  0  0  0  0  0  0
    2.0375   -0.2667    0.0000 C   0  0  0  0  0  0  0  0  0  0  0  0
    1.2375    0.2125    0.0000 C   0  0  0  0  0  0  0  0  0  0  0  0
   -0.3958    0.2333    0.0000 N   0  0  0  0  0  0  0  0  0  0  0  0
    2.8667    0.1958    0.0000 C   0  0  0  0  0  0  0  0  0  0  0  0
   -2.8500   -0.2667    0.0000 N   0  0  0  0  0  0  0  0  0  0  0  0
   -1.2208   -0.2542    0.0000 N   0  0  0  0  0  0  0  0  0  0  0  0
   -2.0458    1.1500    0.0000 O   0  0  0  0  0  0  0  0  0  0  0  0
    0.4292   -0.2500    0.0000 C   0  0  0  0  0  0  0  0  0  0  0  0
    1.2542    1.1625    0.0000 C   0  0  0  0  0  0  0  0  0  0  0  0
    2.9000    1.1125    0.0000 C   0  0  0  0  0  0  0  0  0  0  0  0
    2.0375   -1.2042    0.0000 Cl  0  0  0  0  0  0  0  0  0  0  0  0
   -3.6708    0.2000    0.0000 C   0  0  0  0  0  0  0  0  0  0  0  0
    2.0875    1.6125    0.0000 C   0  0  0  0  0  0  0  0  0  0  0  0
    3.7375    1.5500    0.0000 Cl  0  0  0  0  0  0  0  0  0  0  0  0
   -4.4458   -0.2667    0.0000 C   0  0  0  0  0  0  0  0  0  0  0  0
   -3.6708    1.1333    0.0000 C   0  0  0  0  0  0  0  0  0  0  0  0
   -5.2708    0.1833    0.0000 C   0  0  0  0  0  0  0  0  0  0  0  0
   -4.4708    1.5833    0.0000 C   0  0  0  0  0  0  0  0  0  0  0  0
   -5.2708    1.1125    0.0000 C   0  0  0  0  0  0  0  0  0  0  0  0
  2  3  1  0  0  0  0
  3  9  1  0  0  0  0
  4  7  1  0  0  0  0
  5  2  2  0  0  0  0
  6  1  1  0  0  0  0
  7  1  1  0  0  0  0
  8  1  2  0  0  0  0
  9  4  2  0  0  0  0
 10  3  2  0  0  0  0
 11 14  2  0  0  0  0
 12  2  1  0  0  0  0
 13  6  1  0  0  0  0
 14 10  1  0  0  0  0
 15 11  1  0  0  0  0
 16 13  1  0  0  0  0
 17 13  2  0  0  0  0
 18 16  2  0  0  0  0
 19 17  1  0  0  0  0
 20 19  2  0  0  0  0
 18 20  1  0  0  0  0
 11  5  1  0  0  0  0
M  END
>  <ID> (5321252)
5321252

>  <Supplier> (5321252)
ChemBridge

>  <clogP> (5321252)
4.760000000000000e+000

>  <RB> (5321252)
3

>  <tPSA> (5321252)
5.349000000000000e+001

>  <Hacc> (5321252)
2

>  <Hdon> (5321252)
2

>  <LogSw> (5321252)
-5.513000000000000e+000

>  <Group> (5321252)
1

$$$$
7677604
  -ISIS-  03310818262D

 32 36  0  0  0  0  0  0  0  0999 V2000
   -3.1208   -1.1417    0.0000 N   0  0  3  0  0  0  0  0  0  0  0  0
   -2.6458   -0.3167    0.0000 C   0  0  0  0  0  0  0  0  0  0  0  0
   -3.2458   -1.7167    0.0000 C   0  0  0  0  0  0  0  0  0  0  0  0
   -3.2208   -0.2000    0.0000 C   0  0  0  0  0  0  0  0  0  0  0  0
   -3.5125   -0.7000    0.0000 C   0  0  0  0  0  0  0  0  0  0  0  0
   -2.5833   -0.9042    0.0000 C   0  0  3  0  0  0  0  0  0  0  0  0
   -2.2583    0.1125    0.0000 C   0  0  0  0  0  0  0  0  0  0  0  0
   -2.8583   -2.1542    0.0000 N   0  0  0  0  0  0  0  0  0  0  0  0
   -3.4083    0.3500    0.0000 O   0  0  0  0  0  0  0  0  0  0  0  0
   -3.7875   -1.9542    0.0000 S   0  0  0  0  0  0  0  0  0  0  0  0
   -2.4458    0.6708    0.0000 C   0  0  0  0  0  0  0  0  0  0  0  0
   -3.1500   -2.6625    0.0000 C   0  0  0  0  0  0  0  0  0  0  0  0
   -3.7250   -2.5375    0.0000 C   0  0  0  0  0  0  0  0  0  0  0  0
   -2.0750   -1.1917    0.0000 C   0  0  0  0  0  0  0  0  0  0  0  0
   -3.0125    0.7875    0.0000 C   0  0  0  0  0  0  0  0  0  0  0  0
   -4.1000   -0.7542    0.0000 O   0  0  0  0  0  0  0  0  0  0  0  0
   -1.6833   -0.0042    0.0000 O   0  0  0  0  0  0  0  0  0  0  0  0
   -1.5708   -0.9000    0.0000 C   0  0  0  0  0  0  0  0  0  0  0  0
   -0.0375   -1.7667    0.0000 C   0  0  0  0  0  0  0  0  0  0  0  0
    0.4667   -2.0625    0.0000 C   0  0  0  0  0  0  0  0  0  0  0  0
   -1.0583   -1.1917    0.0000 C   0  0  0  0  0  0  0  0  0  0  0  0
   -2.0750   -1.7792    0.0000 C   0  0  0  0  0  0  0  0  0  0  0  0
   -2.0583    1.1000    0.0000 C   0  0  0  0  0  0  0  0  0  0  0  0
   -2.9125   -3.2000    0.0000 C   0  0  0  0  0  0  0  0  0  0  0  0
   -4.1625   -2.9292    0.0000 C   0  0  0  0  0  0  0  0  0  0  0  0
   -0.5583   -0.8917    0.0000 O   0  0  0  0  0  0  0  0  0  0  0  0
   -3.1958    1.3375    0.0000 C   0  0  0  0  0  0  0  0  0  0  0  0
   -1.5708   -2.0750    0.0000 C   0  0  0  0  0  0  0  0  0  0  0  0
   -0.0458   -1.1792    0.0000 C   0  0  0  0  0  0  0  0  0  0  0  0
   -1.0583   -1.7792    0.0000 C   0  0  0  0  0  0  0  0  0  0  0  0
   -2.2375    1.6583    0.0000 C   0  0  0  0  0  0  0  0  0  0  0  0
   -2.8083    1.7708    0.0000 C   0  0  0  0  0  0  0  0  0  0  0  0
  2  6  1  0  0  0  0
  3  1  1  0  0  0  0
  4  5  1  0  0  0  0
  5  1  1  0  0  0  0
  6  1  1  0  0  0  0
  7  2  1  0  0  0  0
  8  3  2  0  0  0  0
  9  4  1  0  0  0  0
 10  3  1  0  0  0  0
 11  7  1  0  0  0  0
 12  8  1  0  0  0  0
 13 10  1  0  0  0  0
 14  6  1  0  0  0  0
 15  9  1  0  0  0  0
 16  5  2  0  0  0  0
 17  7  2  0  0  0  0
 18 14  1  0  0  0  0
 19 29  1  0  0  0  0
 20 19  2  0  0  0  0
 21 18  2  0  0  0  0
 22 14  2  0  0  0  0
 23 11  1  0  0  0  0
 24 12  1  0  0  0  0
 25 13  1  0  0  0  0
 26 21  1  0  0  0  0
 27 15  1  0  0  0  0
 28 22  1  0  0  0  0
 29 26  1  0  0  0  0
 30 28  2  0  0  0  0
 31 23  2  0  0  0  0
 32 27  2  0  0  0  0
  4  2  2  0  0  0  0
 13 12  2  0  0  0  0
 15 11  2  0  0  0  0
 30 21  1  0  0  0  0
 31 32  1  0  0  0  0
M  END
>  <ID> (7677604)
7677604

>  <Supplier> (7677604)
ChemBridge

>  <clogP> (7677604)
4.454000000000000e+000

>  <RB> (7677604)
5

>  <tPSA> (7677604)
7.263999999999999e+001

>  <Hacc> (7677604)
5

>  <Hdon> (7677604)
0

>  <LogSw> (7677604)
-7.533000000000000e+000

>  <Group> (7677604)
1

>  <Core> (7677604)
082

$$$$
7572975
  -ISIS-  03310818262D

 23 25  0  0  0  0  0  0  0  0999 V2000
   -0.3500    0.0000    0.0000 C   0  0  0  0  0  0  0  0  0  0  0  0
    2.0500   -0.1542    0.0000 C   0  0  0  0  0  0  0  0  0  0  0  0
    1.2000    0.1958    0.0000 C   0  0  0  0  0  0  0  0  0  0  0  0
    0.4500   -0.3500    0.0000 N   0  0  0  0  0  0  0  0  0  0  0  0
   -1.2458   -0.3542    0.0000 N   0  0  0  0  0  0  0  0  0  0  0  0
   -1.1708    1.5125    0.0000 C   0  0  3  0  0  0  0  0  0  0  0  0
    2.1500   -1.0542    0.0000 C   0  0  0  0  0  0  0  0  0  0  0  0
   -1.9833    0.1000    0.0000 C   0  0  0  0  0  0  0  0  0  0  0  0
   -0.7333    2.3458    0.0000 C   0  0  0  0  0  0  0  0  0  0  0  0
   -0.2958    1.4500    0.0000 C   0  0  0  0  0  0  0  0  0  0  0  0
   -1.9833    1.0458    0.0000 C   0  0  0  0  0  0  0  0  0  0  0  0
   -0.3500    0.5708    0.0000 S   0  0  0  0  0  0  0  0  0  0  0  0
    2.9792   -1.4292    0.0000 O   0  0  0  0  0  0  0  0  0  0  0  0
    1.4500   -1.6292    0.0000 O   0  0  0  0  0  0  0  0  0  0  0  0
    2.8000    0.3833    0.0000 C   0  0  0  0  0  0  0  0  0  0  0  0
    1.0792    1.1125    0.0000 C   0  0  0  0  0  0  0  0  0  0  0  0
   -2.7958   -0.3542    0.0000 C   0  0  0  0  0  0  0  0  0  0  0  0
   -2.7958    1.5125    0.0000 C   0  0  0  0  0  0  0  0  0  0  0  0
    1.7667   -2.3292    0.0000 C   0  0  0  0  0  0  0  0  0  0  0  0
    2.6792    1.3125    0.0000 C   0  0  0  0  0  0  0  0  0  0  0  0
    1.8167    1.6708    0.0000 C   0  0  0  0  0  0  0  0  0  0  0  0
   -3.6000    0.1000    0.0000 C   0  0  0  0  0  0  0  0  0  0  0  0
   -3.6000    1.0458    0.0000 C   0  0  0  0  0  0  0  0  0  0  0  0
  2  3  2  0  0  0  0
  3  4  1  0  0  0  0
  4  1  1  0  0  0  0
  5  1  1  0  0  0  0
  6 11  1  0  0  0  0
  7  2  1  0  0  0  0
  8  5  1  0  0  0  0
  9  6  1  0  0  0  0
 10  6  1  0  0  0  0
 11  8  2  0  0  0  0
 12  1  2  0  0  0  0
 13  7  2  0  0  0  0
 14  7  1  0  0  0  0
 15  2  1  0  0  0  0
 16  3  1  0  0  0  0
 17  8  1  0  0  0  0
 18 11  1  0  0  0  0
 19 14  1  0  0  0  0
 20 21  1  0  0  0  0
 21 16  2  0  0  0  0
 22 17  2  0  0  0  0
 23 22  1  0  0  0  0
 23 18  2  0  0  0  0
 10  9  1  0  0  0  0
 20 15  2  0  0  0  0
M  END
>  <ID> (7572975)
7572975

>  <Supplier> (7572975)
ChemBridge

>  <clogP> (7572975)
2.823000000000000e+000

>  <RB> (7572975)
4

>  <tPSA> (7572975)
5.036000000000001e+001

>  <Hacc> (7572975)
2

>  <Hdon> (7572975)
2

>  <LogSw> (7572975)
-5.331000000000000e+000

>  <Group> (7572975)
3

>  <Core> (7572975)
515

$$$$
7572972
  -ISIS-  03310818262D

 25 27  0  0  0  0  0  0  0  0999 V2000
    5.4042   -2.5792    0.0000 N   0  0  3  0  0  0  0  0  0  0  0  0
    4.7292   -2.1000    0.0000 C   0  0  0  0  0  0  0  0  0  0  0  0
    5.4000   -3.4042    0.0000 C   0  0  0  0  0  0  0  0  0  0  0  0
    4.9917   -1.3125    0.0000 C   0  0  0  0  0  0  0  0  0  0  0  0
    6.0667   -2.1000    0.0000 C   0  0  0  0  0  0  0  0  0  0  0  0
    3.9500   -2.3542    0.0000 C   0  0  0  0  0  0  0  0  0  0  0  0
    5.8167   -1.3125    0.0000 C   0  0  0  0  0  0  0  0  0  0  0  0
    6.8292   -5.0417    0.0000 C   0  0  0  0  0  0  0  0  0  0  0  0
    6.1125   -3.8167    0.0000 C   0  0  0  0  0  0  0  0  0  0  0  0
    3.6917   -3.1375    0.0000 S   0  0  0  0  0  0  0  0  0  0  0  0
    6.1167   -4.6375    0.0000 C   0  0  0  0  0  0  0  0  0  0  0  0
    8.2542   -2.0542    0.0000 C   0  0  0  0  0  0  0  0  0  0  0  0
    3.2792   -1.8667    0.0000 C   0  0  0  0  0  0  0  0  0  0  0  0
    2.8667   -3.1417    0.0000 C   0  0  0  0  0  0  0  0  0  0  0  0
    7.5417   -4.6292    0.0000 O   0  0  0  0  0  0  0  0  0  0  0  0
    6.8542   -2.3542    0.0000 C   0  0  0  0  0  0  0  0  0  0  0  0
    2.6167   -2.3542    0.0000 C   0  0  0  0  0  0  0  0  0  0  0  0
    8.4250   -2.8667    0.0000 O   0  0  0  0  0  0  0  0  0  0  0  0
    7.4667   -1.8042    0.0000 C   0  0  0  0  0  0  0  0  0  0  0  0
    6.8375   -5.8667    0.0000 O   0  0  0  0  0  0  0  0  0  0  0  0
    8.8667   -1.5042    0.0000 O   0  0  0  0  0  0  0  0  0  0  0  0
    4.6792   -3.8167    0.0000 C   0  0  0  0  0  0  0  0  0  0  0  0
    5.4000   -5.0542    0.0000 C   0  0  0  0  0  0  0  0  0  0  0  0
    4.6792   -4.6417    0.0000 C   0  0  0  0  0  0  0  0  0  0  0  0
    6.1167   -6.2875    0.0000 C   0  0  0  0  0  0  0  0  0  0  0  0
  2  1  1  0  0  0  0
  3  1  1  0  0  0  0
  4  2  2  0  0  0  0
  5  1  1  0  0  0  0
  6  2  1  0  0  0  0
  7  5  2  0  0  0  0
  8 11  1  0  0  0  0
  9  3  1  0  0  0  0
 10  6  1  0  0  0  0
 11  9  2  0  0  0  0
 12 19  1  0  0  0  0
 13  6  2  0  0  0  0
 14 10  1  0  0  0  0
 15  8  2  0  0  0  0
 16  5  1  0  0  0  0
 17 13  1  0  0  0  0
 18 12  2  0  0  0  0
 19 16  1  0  0  0  0
 20  8  1  0  0  0  0
 21 12  1  0  0  0  0
 22  3  2  0  0  0  0
 23 24  2  0  0  0  0
 24 22  1  0  0  0  0
 25 20  1  0  0  0  0
  7  4  1  0  0  0  0
 23 11  1  0  0  0  0
 17 14  2  0  0  0  0
M  END
>  <ID> (7572972)
7572972

>  <Supplier> (7572972)
ChemBridge

>  <clogP> (7572972)
4.891000000000000e+000

>  <RB> (7572972)
6

>  <tPSA> (7572972)
6.853000000000000e+001

>  <Hacc> (7572972)
5

>  <Hdon> (7572972)
1

>  <LogSw> (7572972)
-5.114999999999998e+000

>  <Group> (7572972)
2

>  <Core> (7572972)
365

$$$$
5416620
  -ISIS-  03310818222D

 17 17  0  0  0  0  0  0  0  0999 V2000
   -1.2708    1.8125    0.0000 N   0  0  3  0  0  0  0  0  0  0  0  0
   -0.5958    2.2125    0.0000 C   0  0  3  0  0  0  0  0  0  0  0  0
   -1.9500    2.2083    0.0000 C   0  0  0  0  0  0  0  0  0  0  0  0
   -0.5958    2.9958    0.0000 C   0  0  0  0  0  0  0  0  0  0  0  0
    0.0875    1.8125    0.0000 C   0  0  0  0  0  0  0  0  0  0  0  0
   -3.3125    2.2125    0.0000 N   0  0  3  0  0  0  0  0  0  0  0  0
   -2.6333    1.8125    0.0000 C   0  0  0  0  0  0  0  0  0  0  0  0
    0.0875    3.3958    0.0000 C   0  0  0  0  0  0  0  0  0  0  0  0
    0.7667    2.2083    0.0000 C   0  0  0  0  0  0  0  0  0  0  0  0
    0.7667    2.9958    0.0000 C   0  0  3  0  0  0  0  0  0  0  0  0
   -1.2708    1.0208    0.0000 C   0  0  0  0  0  0  0  0  0  0  0  0
   -3.3125    3.0000    0.0000 C   0  0  0  0  0  0  0  0  0  0  0  0
   -3.9958    1.8125    0.0000 C   0  0  0  0  0  0  0  0  0  0  0  0
    1.4500    3.3958    0.0000 C   0  0  0  0  0  0  0  0  0  0  0  0
   -4.6708    2.1958    0.0000 C   0  0  0  0  0  0  0  0  0  0  0  0
   -4.0000    3.3958    0.0000 C   0  0  0  0  0  0  0  0  0  0  0  0
    2.1292    2.9958    0.0000 C   0  0  0  0  0  0  0  0  0  0  0  0
  2  1  1  0  0  0  0
  3  1  1  0  0  0  0
  4  2  1  0  0  0  0
  5  2  1  0  0  0  0
  6  7  1  0  0  0  0
  7  3  1  0  0  0  0
  8  4  1  0  0  0  0
  9  5  1  0  0  0  0
 10  9  1  0  0  0  0
 11  1  1  0  0  0  0
 12  6  1  0  0  0  0
 13  6  1  0  0  0  0
 14 10  1  0  0  0  0
 15 13  1  0  0  0  0
 16 12  1  0  0  0  0
 17 14  1  0  0  0  0
 10  8  1  0  0  0  0
M  END
>  <ID> (5416620)
5416620

>  <Supplier> (5416620)
ChemBridge

>  <clogP> (5416620)
4.710000000000000e+000

>  <RB> (5416620)
3

>  <tPSA> (5416620)
6.480000000000000e+000

>  <Hacc> (5416620)
2

>  <Hdon> (5416620)
0

>  <LogSw> (5416620)
-3.969000000000000e+000

>  <Group> (5416620)
1

$$$$
7934671
  -ISIS-  03310818272D

 20 21  0  0  0  0  0  0  0  0999 V2000
    4.2625    1.5083    0.0000 S   0  0  3  0  0  0  0  0  0  0  0  0
    4.0667    2.2333    0.0000 N   0  0  0  0  0  0  0  0  0  0  0  0
    5.0125    1.5083    0.0000 C   0  0  0  0  0  0  0  0  0  0  0  0
    3.3417    2.4250    0.0000 C   0  0  0  0  0  0  0  0  0  0  0  0
    3.5250    1.3750    0.0000 O   0  0  0  0  0  0  0  0  0  0  0  0
    4.3292    0.7583    0.0000 O   0  0  0  0  0  0  0  0  0  0  0  0
    3.1500    3.1500    0.0000 C   0  0  0  0  0  0  0  0  0  0  0  0
    2.4250    3.3458    0.0000 C   0  0  0  0  0  0  0  0  0  0  0  0
    2.8125    1.8958    0.0000 C   0  0  0  0  0  0  0  0  0  0  0  0
    5.3875    0.8583    0.0000 C   0  0  0  0  0  0  0  0  0  0  0  0
    5.3875    2.1583    0.0000 C   0  0  0  0  0  0  0  0  0  0  0  0
    1.8917    2.8125    0.0000 C   0  0  0  0  0  0  0  0  0  0  0  0
    6.5125    1.5083    0.0000 C   0  0  0  0  0  0  0  0  0  0  0  0
    7.2625    1.5083    0.0000 S   0  0  0  0  0  0  0  0  0  0  0  0
    2.0917    2.0875    0.0000 C   0  0  0  0  0  0  0  0  0  0  0  0
    6.1375    0.8583    0.0000 C   0  0  0  0  0  0  0  0  0  0  0  0
    6.1375    2.1583    0.0000 C   0  0  0  0  0  0  0  0  0  0  0  0
    1.1667    3.0083    0.0000 I   0  0  0  0  0  0  0  0  0  0  0  0
    3.6792    3.6833    0.0000 C   0  0  0  0  0  0  0  0  0  0  0  0
    7.6375    2.1583    0.0000 C   0  0  0  0  0  0  0  0  0  0  0  0
  2  1  1  0  0  0  0
  3  1  1  0  0  0  0
  4  2  1  0  0  0  0
  5  1  2  0  0  0  0
  6  1  2  0  0  0  0
  7  4  1  0  0  0  0
  8  7  2  0  0  0  0
  9  4  2  0  0  0  0
 10  3  1  0  0  0  0
 11  3  2  0  0  0  0
 12 15  2  0  0  0  0
 13 17  2  0  0  0  0
 14 13  1  0  0  0  0
 15  9  1  0  0  0  0
 16 10  2  0  0  0  0
 17 11  1  0  0  0  0
 18 12  1  0  0  0  0
 19  7  1  0  0  0  0
 20 14  1  0  0  0  0
 13 16  1  0  0  0  0
 12  8  1  0  0  0  0
M  END
>  <ID> (7934671)
7934671

>  <Supplier> (7934671)
ChemBridge

>  <clogP> (7934671)
4.467000000000000e+000

>  <RB> (7934671)
2

>  <tPSA> (7934671)
4.616999999999997e+001

>  <Hacc> (7934671)
2

>  <Hdon> (7934671)
1

>  <LogSw> (7934671)
-6.071000000000002e+000

>  <Group> (7934671)
1

>  <Core> (7934671)
516

$$$$
9037242
  -ISIS-  03310818282D

 16 15  0  0  0  0  0  0  0  0999 V2000
    1.8042    1.3458    0.0000 C   0  0  0  0  0  0  0  0  0  0  0  0
    1.8042    0.5958    0.0000 C   0  0  0  0  0  0  0  0  0  0  0  0
    2.4542    1.7208    0.0000 C   0  0  0  0  0  0  0  0  0  0  0  0
    1.1625    1.7208    0.0000 C   0  0  3  0  0  0  0  0  0  0  0  0
    2.4542    0.2208    0.0000 C   0  0  0  0  0  0  0  0  0  0  0  0
    3.1042    1.3458    0.0000 C   0  0  0  0  0  0  0  0  0  0  0  0
    4.4042    0.5958    0.0000 N   0  0  0  0  0  0  0  0  0  0  0  0
    3.1042    0.5958    0.0000 C   0  0  0  0  0  0  0  0  0  0  0  0
    7.7542    0.2208    0.0000 Cl  0  0  0  0  0  0  0  0  0  0  0  0
    6.3542    0.2208    0.0000 O   0  0  0  0  0  0  0  0  0  0  0  0
    3.7542    0.2208    0.0000 C   0  0  0  0  0  0  0  0  0  0  0  0
    5.0542    0.2208    0.0000 C   0  0  0  0  0  0  0  0  0  0  0  0
    0.5125    1.3458    0.0000 C   0  0  0  0  0  0  0  0  0  0  0  0
    1.1625    2.4708    0.0000 C   0  0  0  0  0  0  0  0  0  0  0  0
    5.7042    0.5958    0.0000 C   0  0  0  0  0  0  0  0  0  0  0  0
    7.0042    0.5958    0.0000 C   0  0  0  0  0  0  0  0  0  0  0  0
  2  1  1  0  0  0  0
  3  1  2  0  0  0  0
  4  1  1  0  0  0  0
  5  2  2  0  0  0  0
  6  3  1  0  0  0  0
  7 11  1  0  0  0  0
  8  6  2  0  0  0  0
 10 15  1  0  0  0  0
 11  8  1  0  0  0  0
 12  7  1  0  0  0  0
 13  4  1  0  0  0  0
 14  4  1  0  0  0  0
 15 12  1  0  0  0  0
 16 10  1  0  0  0  0
  5  8  1  0  0  0  0
M  END
>  <ID> (9037242)
9037242

>  <Supplier> (9037242)
ChemBridge

>  <clogP> (9037242)
3.920000000000000e+000

>  <RB> (9037242)
4

>  <tPSA> (9037242)
2.126000000000000e+001

>  <Hacc> (9037242)
2

>  <Hdon> (9037242)
1

>  <LogSw> (9037242)
-2.025000000000000e+000

>  <Group> (9037242)
2

$$$$
7958116
  -ISIS-  03310818282D

 17 18  0  0  0  0  0  0  0  0999 V2000
    4.4250    1.2625    0.0000 C   0  0  0  0  0  0  0  0  0  0  0  0
    3.6750    1.2625    0.0000 N   0  0  3  0  0  0  0  0  0  0  0  0
    2.1750    1.2625    0.0000 N   0  0  3  0  0  0  0  0  0  0  0  0
    4.8000    1.9125    0.0000 N   0  0  3  0  0  0  0  0  0  0  0  0
    4.8000    0.6125    0.0000 O   0  0  0  0  0  0  0  0  0  0  0  0
    3.3000    0.6125    0.0000 C   0  0  0  0  0  0  0  0  0  0  0  0
    3.3000    1.9125    0.0000 C   0  0  0  0  0  0  0  0  0  0  0  0
    2.5500    1.9125    0.0000 C   0  0  0  0  0  0  0  0  0  0  0  0
    2.5500    0.6125    0.0000 C   0  0  0  0  0  0  0  0  0  0  0  0
    1.4250    1.2625    0.0000 C   0  0  0  0  0  0  0  0  0  0  0  0
    5.5500    1.9125    0.0000 C   0  0  0  0  0  0  0  0  0  0  0  0
    4.4250    2.5625    0.0000 C   0  0  0  0  0  0  0  0  0  0  0  0
    1.0500    1.9125    0.0000 C   0  0  0  0  0  0  0  0  0  0  0  0
    1.0500    0.6125    0.0000 C   0  0  0  0  0  0  0  0  0  0  0  0
    0.3000    0.6125    0.0000 C   0  0  0  0  0  0  0  0  0  0  0  0
    0.3000    1.9125    0.0000 C   0  0  0  0  0  0  0  0  0  0  0  0
   -0.0750    1.2625    0.0000 C   0  0  0  0  0  0  0  0  0  0  0  0
  2  1  1  0  0  0  0
  3  8  1  0  0  0  0
  4  1  1  0  0  0  0
  5  1  2  0  0  0  0
  6  2  1  0  0  0  0
  7  2  1  0  0  0  0
  8  7  1  0  0  0  0
  9  6  1  0  0  0  0
 10  3  1  0  0  0  0
 11  4  1  0  0  0  0
 12  4  1  0  0  0  0
 13 10  2  0  0  0  0
 14 10  1  0  0  0  0
 15 14  2  0  0  0  0
 16 13  1  0  0  0  0
 17 15  1  0  0  0  0
  3  9  1  0  0  0  0
 16 17  2  0  0  0  0
M  END
>  <ID> (7958116)
7958116

>  <Supplier> (7958116)
ChemBridge

>  <clogP> (7958116)
1.393000000000000e+000

>  <RB> (7958116)
1

>  <tPSA> (7958116)
2.679000000000000e+001

>  <Hacc> (7958116)
1

>  <Hdon> (7958116)
0

>  <LogSw> (7958116)
-2.092000000000000e+000

>  <Group> (7958116)
3

>  <Core> (7958116)
159

$$$$
6088068
  -ISIS-  03310818232D

 15 16  0  0  0  0  0  0  0  0999 V2000
    2.2542    0.9333    0.0000 N   0  0  3  0  0  0  0  0  0  0  0  0
    2.2542    0.1000    0.0000 C   0  0  0  0  0  0  0  0  0  0  0  0
    2.9250    1.4125    0.0000 C   0  0  0  0  0  0  0  0  0  0  0  0
    1.5917    1.4208    0.0000 C   0  0  0  0  0  0  0  0  0  0  0  0
    2.9792   -0.3167    0.0000 C   0  0  0  0  0  0  0  0  0  0  0  0
    1.5417   -0.3167    0.0000 C   0  0  0  0  0  0  0  0  0  0  0  0
    2.6625    2.2125    0.0000 C   0  0  0  0  0  0  0  0  0  0  0  0
    1.8417    2.2083    0.0000 C   0  0  0  0  0  0  0  0  0  0  0  0
    2.9792   -1.1500    0.0000 C   0  0  0  0  0  0  0  0  0  0  0  0
    0.8000    1.1583    0.0000 O   0  0  0  0  0  0  0  0  0  0  0  0
    3.7125    1.1625    0.0000 O   0  0  0  0  0  0  0  0  0  0  0  0
    2.2542   -1.5625    0.0000 C   0  0  0  0  0  0  0  0  0  0  0  0
    1.5417   -1.1500    0.0000 C   0  0  0  0  0  0  0  0  0  0  0  0
    2.2542   -2.3792    0.0000 Br  0  0  0  0  0  0  0  0  0  0  0  0
    3.6917    0.0958    0.0000 C   0  0  0  0  0  0  0  0  0  0  0  0
  2  1  1  0  0  0  0
  3  1  1  0  0  0  0
  4  1  1  0  0  0  0
  5  2  2  0  0  0  0
  6  2  1  0  0  0  0
  7  3  1  0  0  0  0
  8  4  1  0  0  0  0
  9  5  1  0  0  0  0
 10  4  2  0  0  0  0
 11  3  2  0  0  0  0
 12 13  1  0  0  0  0
 13  6  2  0  0  0  0
 14 12  1  0  0  0  0
 15  5  1  0  0  0  0
  7  8  1  0  0  0  0
 12  9  2  0  0  0  0
M  END
>  <ID> (6088068)
6088068

>  <Supplier> (6088068)
ChemBridge

>  <clogP> (6088068)
1.200000000000000e+000

>  <RB> (6088068)
1

>  <tPSA> (6088068)
3.738000000000000e+001

>  <Hacc> (6088068)
2

>  <Hdon> (6088068)
0

>  <LogSw> (6088068)
-2.181000000000000e+000

>  <Group> (6088068)
2

$$$$
9037247
  -ISIS-  03310818282D

 24 26  0  0  0  0  0  0  0  0999 V2000
    3.7542    1.9583    0.0000 N   0  0  0  0  0  0  0  0  0  0  0  0
    3.3125    1.3458    0.0000 C   0  0  0  0  0  0  0  0  0  0  0  0
    4.4667    1.7208    0.0000 C   0  0  0  0  0  0  0  0  0  0  0  0
    3.7542    0.7458    0.0000 N   0  0  0  0  0  0  0  0  0  0  0  0
    6.3667    2.3000    0.0000 C   0  0  0  0  0  0  0  0  0  0  0  0
    4.4667    0.9708    0.0000 O   0  0  0  0  0  0  0  0  0  0  0  0
    5.7625    1.8583    0.0000 N   0  0  3  0  0  0  0  0  0  0  0  0
    5.0750    2.1625    0.0000 C   0  0  0  0  0  0  0  0  0  0  0  0
    2.5625    1.3458    0.0000 C   0  0  0  0  0  0  0  0  0  0  0  0
    7.0542    1.9958    0.0000 C   0  0  0  0  0  0  0  0  0  0  0  0
    6.2875    3.0458    0.0000 O   0  0  0  0  0  0  0  0  0  0  0  0
    2.1875    1.9958    0.0000 C   0  0  0  0  0  0  0  0  0  0  0  0
    2.1875    0.7000    0.0000 C   0  0  0  0  0  0  0  0  0  0  0  0
    1.0625    1.3458    0.0000 C   0  0  0  0  0  0  0  0  0  0  0  0
    1.4375    1.9958    0.0000 C   0  0  0  0  0  0  0  0  0  0  0  0
    1.4375    0.7000    0.0000 C   0  0  0  0  0  0  0  0  0  0  0  0
    0.3125    1.3458    0.0000 Cl  0  0  0  0  0  0  0  0  0  0  0  0
    7.6542    2.4333    0.0000 C   0  0  3  0  0  0  0  0  0  0  0  0
    5.8375    1.1125    0.0000 C   0  0  0  0  0  0  0  0  0  0  0  0
    8.3417    2.1333    0.0000 C   0  0  0  0  0  0  0  0  0  0  0  0
    7.5792    3.1833    0.0000 C   0  0  0  0  0  0  0  0  0  0  0  0
    8.9500    2.5708    0.0000 C   0  0  0  0  0  0  0  0  0  0  0  0
    8.1875    3.6208    0.0000 C   0  0  0  0  0  0  0  0  0  0  0  0
    8.8667    3.3208    0.0000 C   0  0  0  0  0  0  0  0  0  0  0  0
  2  1  1  0  0  0  0
  3  1  2  0  0  0  0
  4  2  2  0  0  0  0
  5  7  1  0  0  0  0
  6  3  1  0  0  0  0
  7  8  1  0  0  0  0
  8  3  1  0  0  0  0
  9  2  1  0  0  0  0
 10  5  1  0  0  0  0
 11  5  2  0  0  0  0
 12  9  1  0  0  0  0
 13  9  2  0  0  0  0
 14 16  2  0  0  0  0
 15 12  2  0  0  0  0
 16 13  1  0  0  0  0
 17 14  1  0  0  0  0
 18 10  1  0  0  0  0
 19  7  1  0  0  0  0
 20 18  1  0  0  0  0
 21 18  1  0  0  0  0
 22 20  1  0  0  0  0
 23 21  1  0  0  0  0
 24 23  1  0  0  0  0
  4  6  1  0  0  0  0
 15 14  1  0  0  0  0
 24 22  1  0  0  0  0
M  END
>  <ID> (9037247)
9037247

>  <Supplier> (9037247)
ChemBridge

>  <clogP> (9037247)
3.783000000000000e+000

>  <RB> (9037247)
5

>  <tPSA> (9037247)
5.923000000000000e+001

>  <Hacc> (9037247)
4

>  <Hdon> (9037247)
0

>  <LogSw> (9037247)
-4.967000000000000e+000

>  <Group> (9037247)
3

>  <Core> (9037247)
204

$$$$
9037245
  -ISIS-  03310818282D

 25 27  0  0  0  0  0  0  0  0999 V2000
    2.7792    2.4333    0.0000 C   0  0  0  0  0  0  0  0  0  0  0  0
    2.4042    3.0833    0.0000 C   0  0  0  0  0  0  0  0  0  0  0  0
    2.4042    1.7833    0.0000 C   0  0  0  0  0  0  0  0  0  0  0  0
    1.6542    3.0833    0.0000 C   0  0  3  0  0  0  0  0  0  0  0  0
    3.5292    2.4333    0.0000 C   0  0  3  0  0  0  0  0  0  0  0  0
    2.7792    1.1333    0.0000 N   0  0  0  0  0  0  0  0  0  0  0  0
    1.2792    2.4333    0.0000 C   0  0  3  0  0  0  0  0  0  0  0  0
    3.5292    1.1333    0.0000 C   0  0  0  0  0  0  0  0  0  0  0  0
    1.2792    3.7333    0.0000 C   0  0  0  0  0  0  0  0  0  0  0  0
    1.6542    1.7833    0.0000 C   0  0  0  0  0  0  0  0  0  0  0  0
    3.9042    3.0833    0.0000 C   0  0  0  0  0  0  0  0  0  0  0  0
    3.9042    1.7833    0.0000 C   0  0  0  0  0  0  0  0  0  0  0  0
    2.7792    3.7333    0.0000 O   0  0  0  0  0  0  0  0  0  0  0  0
    4.6542    3.0833    0.0000 C   0  0  0  0  0  0  0  0  0  0  0  0
    3.9042    0.4833    0.0000 O   0  0  0  0  0  0  0  0  0  0  0  0
    1.6542    4.3792    0.0000 O   0  0  0  0  0  0  0  0  0  0  0  0
    0.5292    3.7333    0.0000 O   0  0  0  0  0  0  0  0  0  0  0  0
    5.0292    3.7333    0.0000 C   0  0  0  0  0  0  0  0  0  0  0  0
    0.5292    2.4333    0.0000 C   0  0  0  0  0  0  0  0  0  0  0  0
    3.5292    3.7333    0.0000 C   0  0  0  0  0  0  0  0  0  0  0  0
    5.7792    3.7333    0.0000 O   0  0  0  0  0  0  0  0  0  0  0  0
    3.9042    4.3792    0.0000 C   0  0  0  0  0  0  0  0  0  0  0  0
    4.6542    4.3792    0.0000 C   0  0  0  0  0  0  0  0  0  0  0  0
    0.1542    4.3792    0.0000 C   0  0  0  0  0  0  0  0  0  0  0  0
    6.1542    4.3792    0.0000 C   0  0  0  0  0  0  0  0  0  0  0  0
  2  1  1  0  0  0  0
  3  1  2  0  0  0  0
  4  2  1  0  0  0  0
  5  1  1  0  0  0  0
  6  3  1  0  0  0  0
  7 10  1  0  0  0  0
  8 12  1  0  0  0  0
  9  4  1  0  0  0  0
 10  3  1  0  0  0  0
 11  5  1  0  0  0  0
 12  5  1  0  0  0  0
 13  2  2  0  0  0  0
 14 11  2  0  0  0  0
 15  8  2  0  0  0  0
 16  9  2  0  0  0  0
 17  9  1  0  0  0  0
 18 14  1  0  0  0  0
 19  7  1  0  0  0  0
 20 11  1  0  0  0  0
 21 18  1  0  0  0  0
 22 20  2  0  0  0  0
 23 22  1  0  0  0  0
 24 17  1  0  0  0  0
 25 21  1  0  0  0  0
  6  8  1  0  0  0  0
  4  7  1  0  0  0  0
 23 18  2  0  0  0  0
M  END
>  <ID> (9037245)
9037245

>  <Supplier> (9037245)
ChemBridge

>  <clogP> (9037245)
1.245000000000000e+000

>  <RB> (9037245)
2

>  <tPSA> (9037245)
8.170000000000000e+001

>  <Hacc> (9037245)
5

>  <Hdon> (9037245)
1

>  <LogSw> (9037245)
-2.767000000000000e+000

>  <Group> (9037245)
1

>  <Core> (9037245)
284

$$$$
6088063
  -ISIS-  03310818232D

 27 29  0  0  0  0  0  0  0  0999 V2000
   -2.2125   -0.6667    0.0000 S   0  0  3  0  0  0  0  0  0  0  0  0
   -1.4458   -0.6875    0.0000 N   0  0  3  0  0  0  0  0  0  0  0  0
    0.0792   -0.7042    0.0000 N   0  0  3  0  0  0  0  0  0  0  0  0
    0.8375   -0.7042    0.0000 C   0  0  0  0  0  0  0  0  0  0  0  0
    1.2500   -1.3500    0.0000 C   0  0  0  0  0  0  0  0  0  0  0  0
   -2.9500   -0.6667    0.0000 C   0  0  0  0  0  0  0  0  0  0  0  0
    2.3542   -0.6542    0.0000 C   0  0  0  0  0  0  0  0  0  0  0  0
   -2.2125    0.1000    0.0000 O   0  0  0  0  0  0  0  0  0  0  0  0
   -2.2125   -1.4167    0.0000 O   0  0  0  0  0  0  0  0  0  0  0  0
   -1.0833   -1.3500    0.0000 C   0  0  0  0  0  0  0  0  0  0  0  0
   -1.0708   -0.0292    0.0000 C   0  0  0  0  0  0  0  0  0  0  0  0
    2.0000   -1.3292    0.0000 C   0  0  0  0  0  0  0  0  0  0  0  0
    1.1875   -0.0292    0.0000 C   0  0  0  0  0  0  0  0  0  0  0  0
   -0.3000   -0.0292    0.0000 C   0  0  0  0  0  0  0  0  0  0  0  0
   -0.3125   -1.3500    0.0000 C   0  0  0  0  0  0  0  0  0  0  0  0
    3.1042   -0.6375    0.0000 C   0  0  0  0  0  0  0  0  0  0  0  0
    1.9500    0.0000    0.0000 C   0  0  0  0  0  0  0  0  0  0  0  0
    3.5000   -1.2792    0.0000 O   0  0  0  0  0  0  0  0  0  0  0  0
   -3.3708   -1.3292    0.0000 C   0  0  0  0  0  0  0  0  0  0  0  0
   -3.3333    0.0000    0.0000 C   0  0  0  0  0  0  0  0  0  0  0  0
    0.9042   -2.0292    0.0000 F   0  0  0  0  0  0  0  0  0  0  0  0
   -4.0958    0.0000    0.0000 C   0  0  0  0  0  0  0  0  0  0  0  0
   -4.1458   -1.3042    0.0000 C   0  0  0  0  0  0  0  0  0  0  0  0
   -4.5208   -0.6292    0.0000 C   0  0  0  0  0  0  0  0  0  0  0  0
    3.4792    0.0125    0.0000 C   0  0  0  0  0  0  0  0  0  0  0  0
   -5.2708   -0.6000    0.0000 C   0  0  0  0  0  0  0  0  0  0  0  0
    3.0875    0.6458    0.0000 C   0  0  0  0  0  0  0  0  0  0  0  0
  2  1  1  0  0  0  0
  3 14  1  0  0  0  0
  4  3  1  0  0  0  0
  5  4  2  0  0  0  0
  6  1  1  0  0  0  0
  7 17  1  0  0  0  0
  8  1  2  0  0  0  0
  9  1  2  0  0  0  0
 10  2  1  0  0  0  0
 11  2  1  0  0  0  0
 12  5  1  0  0  0  0
 13  4  1  0  0  0  0
 14 11  1  0  0  0  0
 15 10  1  0  0  0  0
 16  7  1  0  0  0  0
 17 13  2  0  0  0  0
 18 16  2  0  0  0  0
 19  6  2  0  0  0  0
 20  6  1  0  0  0  0
 21  5  1  0  0  0  0
 22 20  2  0  0  0  0
 23 19  1  0  0  0  0
 24 22  1  0  0  0  0
 25 16  1  0  0  0  0
 26 24  1  0  0  0  0
 27 25  1  0  0  0  0
  3 15  1  0  0  0  0
 24 23  2  0  0  0  0
  7 12  2  0  0  0  0
M  END
>  <ID> (6088063)
6088063

>  <Supplier> (6088063)
ChemBridge

>  <clogP> (6088063)
3.220000000000000e+000

>  <RB> (6088063)
3

>  <tPSA> (6088063)
5.769000000000000e+001

>  <Hacc> (6088063)
4

>  <Hdon> (6088063)
0

>  <LogSw> (6088063)
-4.797000000000000e+000

>  <Group> (6088063)
3

>  <Core> (6088063)
161

$$$$
6395322
  -ISIS-  03310818232D

 28 29  0  0  0  0  0  0  0  0999 V2000
    6.1167   -4.8667    0.0000 S   0  0  3  0  0  0  0  0  0  0  0  0
    6.1167   -4.0417    0.0000 N   0  0  3  0  0  0  0  0  0  0  0  0
    6.8292   -3.6292    0.0000 C   0  0  0  0  0  0  0  0  0  0  0  0
    5.4000   -3.6292    0.0000 C   0  0  0  0  0  0  0  0  0  0  0  0
    7.5417   -4.0417    0.0000 C   0  0  0  0  0  0  0  0  0  0  0  0
    8.9667   -4.0375    0.0000 C   0  0  0  0  0  0  0  0  0  0  0  0
    4.6875   -4.0542    0.0000 C   0  0  0  0  0  0  0  0  0  0  0  0
    8.2542   -3.6292    0.0000 N   0  0  0  0  0  0  0  0  0  0  0  0
    3.9667   -3.6292    0.0000 C   0  0  0  0  0  0  0  0  0  0  0  0
    8.9625   -4.8542    0.0000 C   0  0  0  0  0  0  0  0  0  0  0  0
    6.9417   -4.8667    0.0000 O   0  0  0  0  0  0  0  0  0  0  0  0
    6.7000   -5.4500    0.0000 O   0  0  0  0  0  0  0  0  0  0  0  0
    9.6750   -3.6167    0.0000 C   0  0  0  0  0  0  0  0  0  0  0  0
    3.9667   -2.8000    0.0000 C   0  0  0  0  0  0  0  0  0  0  0  0
    5.4042   -2.8000    0.0000 C   0  0  0  0  0  0  0  0  0  0  0  0
    7.5417   -4.8667    0.0000 O   0  0  0  0  0  0  0  0  0  0  0  0
    4.6917   -2.3875    0.0000 C   0  0  0  0  0  0  0  0  0  0  0  0
   10.3875   -4.0375    0.0000 C   0  0  0  0  0  0  0  0  0  0  0  0
    9.6667   -5.2667    0.0000 C   0  0  0  0  0  0  0  0  0  0  0  0
    5.4000   -5.2750    0.0000 C   0  0  0  0  0  0  0  0  0  0  0  0
   10.3875   -4.8542    0.0000 C   0  0  0  0  0  0  0  0  0  0  0  0
    3.2417   -4.0292    0.0000 O   0  0  0  0  0  0  0  0  0  0  0  0
    9.6667   -6.0917    0.0000 Cl  0  0  0  0  0  0  0  0  0  0  0  0
    9.6667   -2.7917    0.0000 O   0  0  0  0  0  0  0  0  0  0  0  0
    3.2542   -2.3792    0.0000 O   0  0  0  0  0  0  0  0  0  0  0  0
    3.2417   -4.8542    0.0000 C   0  0  0  0  0  0  0  0  0  0  0  0
    3.2625   -1.5542    0.0000 C   0  0  0  0  0  0  0  0  0  0  0  0
    8.9500   -2.3792    0.0000 C   0  0  0  0  0  0  0  0  0  0  0  0
  2  1  1  0  0  0  0
  3  2  1  0  0  0  0
  4  2  1  0  0  0  0
  5  3  1  0  0  0  0
  6  8  1  0  0  0  0
  7  4  1  0  0  0  0
  8  5  1  0  0  0  0
  9  7  2  0  0  0  0
 10  6  2  0  0  0  0
 11  1  2  0  0  0  0
 12  1  2  0  0  0  0
 13  6  1  0  0  0  0
 14 17  2  0  0  0  0
 15  4  2  0  0  0  0
 16  5  2  0  0  0  0
 17 15  1  0  0  0  0
 18 13  2  0  0  0  0
 19 10  1  0  0  0  0
 20  1  1  0  0  0  0
 21 18  1  0  0  0  0
 22  9  1  0  0  0  0
 23 19  1  0  0  0  0
 24 13  1  0  0  0  0
 25 14  1  0  0  0  0
 26 22  1  0  0  0  0
 27 25  1  0  0  0  0
 28 24  1  0  0  0  0
 14  9  1  0  0  0  0
 19 21  2  0  0  0  0
M  END
>  <ID> (6395322)
6395322

>  <Supplier> (6395322)
ChemBridge

>  <clogP> (6395322)
2.270000000000000e+000

>  <RB> (6395322)
4

>  <tPSA> (6395322)
9.417000000000000e+001

>  <Hacc> (6395322)
6

>  <Hdon> (6395322)
1

>  <LogSw> (6395322)
-4.265000000000000e+000

>  <Group> (6395322)
2

>  <Core> (6395322)
084

$$$$
9037248
  -ISIS-  03310818282D

 26 29  0  0  0  0  0  0  0  0999 V2000
    3.5542    2.7250    0.0000 N   0  0  3  0  0  0  0  0  0  0  0  0
    2.8667    3.0333    0.0000 C   0  0  0  0  0  0  0  0  0  0  0  0
    3.4750    1.9833    0.0000 C   0  0  0  0  0  0  0  0  0  0  0  0
    2.3667    2.4750    0.0000 C   0  0  3  0  0  0  0  0  0  0  0  0
    2.7417    1.8250    0.0000 C   0  0  3  0  0  0  0  0  0  0  0  0
    4.2042    3.1083    0.0000 C   0  0  0  0  0  0  0  0  0  0  0  0
    8.1000    3.1083    0.0000 C   0  0  0  0  0  0  0  0  0  0  0  0
    5.5000    3.1083    0.0000 C   0  0  0  0  0  0  0  0  0  0  0  0
    4.8500    2.7250    0.0000 C   0  0  0  0  0  0  0  0  0  0  0  0
    7.4500    2.7250    0.0000 C   0  0  0  0  0  0  0  0  0  0  0  0
    4.0292    1.4833    0.0000 O   0  0  0  0  0  0  0  0  0  0  0  0
    2.7125    3.7708    0.0000 O   0  0  0  0  0  0  0  0  0  0  0  0
    6.1500    2.7250    0.0000 N   0  0  0  0  0  0  0  0  0  0  0  0
    8.1000    3.8583    0.0000 C   0  0  0  0  0  0  0  0  0  0  0  0
    6.8000    3.1083    0.0000 C   0  0  0  0  0  0  0  0  0  0  0  0
    8.7500    2.7250    0.0000 O   0  0  0  0  0  0  0  0  0  0  0  0
    8.7500    4.2167    0.0000 O   0  0  0  0  0  0  0  0  0  0  0  0
    5.5000    3.8583    0.0000 O   0  0  0  0  0  0  0  0  0  0  0  0
    7.4500    4.2167    0.0000 C   0  0  0  0  0  0  0  0  0  0  0  0
    1.2417    1.8250    0.0000 C   0  0  0  0  0  0  0  0  0  0  0  0
    1.6167    1.1750    0.0000 C   0  0  0  0  0  0  0  0  0  0  0  0
    6.8000    3.8583    0.0000 C   0  0  0  0  0  0  0  0  0  0  0  0
    1.6167    2.4750    0.0000 C   0  0  0  0  0  0  0  0  0  0  0  0
    2.3667    1.1750    0.0000 C   0  0  0  0  0  0  0  0  0  0  0  0
    9.4000    3.1083    0.0000 C   0  0  0  0  0  0  0  0  0  0  0  0
    9.4000    3.8583    0.0000 C   0  0  0  0  0  0  0  0  0  0  0  0
  2  1  1  0  0  0  0
  3  1  1  0  0  0  0
  4  2  1  0  0  0  0
  5  3  1  0  0  0  0
  6  1  1  0  0  0  0
  7 10  2  0  0  0  0
  8  9  1  0  0  0  0
  9  6  1  0  0  0  0
 10 15  1  0  0  0  0
 11  3  2  0  0  0  0
 12  2  2  0  0  0  0
 13  8  1  0  0  0  0
 14 19  2  0  0  0  0
 15 13  1  0  0  0  0
 16  7  1  0  0  0  0
 17 14  1  0  0  0  0
 18  8  2  0  0  0  0
 19 22  1  0  0  0  0
 20 23  1  0  0  0  0
 21 24  1  0  0  0  0
 22 15  2  0  0  0  0
 23  4  1  0  0  0  0
 24  5  1  0  0  0  0
 25 16  1  0  0  0  0
 26 17  1  0  0  0  0
  4  5  1  0  0  0  0
 20 21  2  0  0  0  0
 14  7  1  0  0  0  0
 26 25  1  0  0  0  0
M  END
>  <ID> (9037248)
9037248

>  <Supplier> (9037248)
ChemBridge

>  <clogP> (9037248)
1.488000000000000e+000

>  <RB> (9037248)
4

>  <tPSA> (9037248)
8.494000000000000e+001

>  <Hacc> (9037248)
5

>  <Hdon> (9037248)
1

>  <LogSw> (9037248)
-3.069000000000000e+000

>  <Group> (9037248)
2

>  <Core> (9037248)
311

$$$$
9037249
  -ISIS-  03310818282D

 21 23  0  0  0  0  0  0  0  0999 V2000
   -1.3458    0.9333    0.0000 N   0  0  3  0  0  0  0  0  0  0  0  0
   -0.9708    0.2875    0.0000 C   0  0  0  0  0  0  0  0  0  0  0  0
   -0.1583    1.1875    0.0000 C   0  0  3  0  0  0  0  0  0  0  0  0
    0.4917    1.5625    0.0000 C   0  0  0  0  0  0  0  0  0  0  0  0
    1.1417    1.1875    0.0000 N   0  0  0  0  0  0  0  0  0  0  0  0
   -0.8375    1.4958    0.0000 C   0  0  0  0  0  0  0  0  0  0  0  0
    1.7917    1.5625    0.0000 C   0  0  0  0  0  0  0  0  0  0  0  0
   -0.2333    0.4458    0.0000 C   0  0  0  0  0  0  0  0  0  0  0  0
    2.4417    1.1875    0.0000 N   0  0  0  0  0  0  0  0  0  0  0  0
    1.7917    2.3125    0.0000 N   0  0  0  0  0  0  0  0  0  0  0  0
   -2.0875    1.0125    0.0000 C   0  0  0  0  0  0  0  0  0  0  0  0
   -1.2708   -0.4000    0.0000 O   0  0  0  0  0  0  0  0  0  0  0  0
    0.4917    2.3125    0.0000 O   0  0  0  0  0  0  0  0  0  0  0  0
    3.0917    2.3125    0.0000 C   0  0  0  0  0  0  0  0  0  0  0  0
    2.4417    2.6875    0.0000 C   0  0  0  0  0  0  0  0  0  0  0  0
    3.0917    1.5625    0.0000 C   0  0  0  0  0  0  0  0  0  0  0  0
   -2.3958    1.7000    0.0000 C   0  0  0  0  0  0  0  0  0  0  0  0
   -2.5333    0.4083    0.0000 C   0  0  0  0  0  0  0  0  0  0  0  0
   -3.1375    1.7750    0.0000 C   0  0  0  0  0  0  0  0  0  0  0  0
   -3.2750    0.4833    0.0000 C   0  0  0  0  0  0  0  0  0  0  0  0
   -3.5833    1.1708    0.0000 C   0  0  0  0  0  0  0  0  0  0  0  0
  2  1  1  0  0  0  0
  3  6  1  0  0  0  0
  4  3  1  0  0  0  0
  5  4  1  0  0  0  0
  6  1  1  0  0  0  0
  7  5  1  0  0  0  0
  8  2  1  0  0  0  0
  9  7  1  0  0  0  0
 10  7  2  0  0  0  0
 11  1  1  0  0  0  0
 12  2  2  0  0  0  0
 13  4  2  0  0  0  0
 14 15  2  0  0  0  0
 15 10  1  0  0  0  0
 16  9  2  0  0  0  0
 17 11  2  0  0  0  0
 18 11  1  0  0  0  0
 19 17  1  0  0  0  0
 20 18  2  0  0  0  0
 21 20  1  0  0  0  0
  8  3  1  0  0  0  0
 21 19  2  0  0  0  0
 14 16  1  0  0  0  0
M  END
>  <ID> (9037249)
9037249

>  <Supplier> (9037249)
ChemBridge

>  <clogP> (9037249)
1.342000000000000e+000

>  <RB> (9037249)
3

>  <tPSA> (9037249)
7.519000000000000e+001

>  <Hacc> (9037249)
4

>  <Hdon> (9037249)
1

>  <LogSw> (9037249)
-2.405000000000000e+000

>  <Group> (9037249)
3

>  <Core> (9037249)
124

$$$$
7994129
  -ISIS-  03310818282D

 16 18  0  0  0  0  0  0  0  0999 V2000
    1.9542    2.7958    0.0000 N   0  0  3  0  0  0  0  0  0  0  0  0
    1.9542    2.0458    0.0000 C   0  0  0  0  0  0  0  0  0  0  0  0
    3.1042    2.4208    0.0000 C   0  0  0  0  0  0  0  0  0  0  0  0
    2.6667    1.8125    0.0000 S   0  0  0  0  0  0  0  0  0  0  0  0
    2.6667    3.0250    0.0000 N   0  0  0  0  0  0  0  0  0  0  0  0
    1.2417    1.8125    0.0000 N   0  0  0  0  0  0  0  0  0  0  0  0
    3.8542    2.4208    0.0000 C   0  0  0  0  0  0  0  0  0  0  0  0
    0.8000    2.4208    0.0000 N   0  0  0  0  0  0  0  0  0  0  0  0
    1.2417    3.0250    0.0000 C   0  0  0  0  0  0  0  0  0  0  0  0
    4.2292    1.7708    0.0000 C   0  0  0  0  0  0  0  0  0  0  0  0
    4.2292    3.0708    0.0000 C   0  0  0  0  0  0  0  0  0  0  0  0
    3.8542    1.1208    0.0000 O   0  0  0  0  0  0  0  0  0  0  0  0
    4.9792    1.7708    0.0000 C   0  0  0  0  0  0  0  0  0  0  0  0
    4.2292    0.4708    0.0000 C   0  0  0  0  0  0  0  0  0  0  0  0
    4.9792    3.0708    0.0000 C   0  0  0  0  0  0  0  0  0  0  0  0
    5.3542    2.4208    0.0000 C   0  0  0  0  0  0  0  0  0  0  0  0
  2  1  1  0  0  0  0
  3  5  2  0  0  0  0
  4  2  1  0  0  0  0
  5  1  1  0  0  0  0
  6  2  2  0  0  0  0
  7  3  1  0  0  0  0
  8  9  2  0  0  0  0
  9  1  1  0  0  0  0
 10  7  2  0  0  0  0
 11  7  1  0  0  0  0
 12 10  1  0  0  0  0
 13 10  1  0  0  0  0
 14 12  1  0  0  0  0
 15 11  2  0  0  0  0
 16 15  1  0  0  0  0
  6  8  1  0  0  0  0
  4  3  1  0  0  0  0
 13 16  2  0  0  0  0
M  END
>  <ID> (7994129)
7994129

>  <Supplier> (7994129)
ChemBridge

>  <clogP> (7994129)
1.120000000000000e+000

>  <RB> (7994129)
1

>  <tPSA> (7994129)
5.231000000000002e+001

>  <Hacc> (7994129)
4

>  <Hdon> (7994129)
0

>  <LogSw> (7994129)
-1.851000000000000e+000

>  <Group> (7994129)
2

>  <Core> (7994129)
267

$$$$
7994128
  -ISIS-  03310818282D

 25 27  0  0  0  0  0  0  0  0999 V2000
    4.3625    2.4125    0.0000 C   0  0  0  0  0  0  0  0  0  0  0  0
    3.9875    1.7625    0.0000 C   0  0  0  0  0  0  0  0  0  0  0  0
    4.3625    1.1125    0.0000 N   0  0  3  0  0  0  0  0  0  0  0  0
    5.4875    1.7625    0.0000 N   0  0  3  0  0  0  0  0  0  0  0  0
    3.8625    2.9708    0.0000 N   0  0  3  0  0  0  0  0  0  0  0  0
    5.1125    1.1125    0.0000 C   0  0  0  0  0  0  0  0  0  0  0  0
    5.1125    2.4125    0.0000 C   0  0  0  0  0  0  0  0  0  0  0  0
    3.2542    1.9208    0.0000 N   0  0  0  0  0  0  0  0  0  0  0  0
    3.1750    2.6708    0.0000 C   0  0  0  0  0  0  0  0  0  0  0  0
    2.5250    3.0458    0.0000 C   0  0  0  0  0  0  0  0  0  0  0  0
    1.8750    2.6708    0.0000 N   0  0  3  0  0  0  0  0  0  0  0  0
    4.0167    3.7083    0.0000 C   0  0  0  0  0  0  0  0  0  0  0  0
    5.4875    0.4708    0.0000 O   0  0  0  0  0  0  0  0  0  0  0  0
    0.5792    1.9208    0.0000 N   0  0  3  0  0  0  0  0  0  0  0  0
    5.4875    3.0625    0.0000 O   0  0  0  0  0  0  0  0  0  0  0  0
    3.9875    0.4708    0.0000 C   0  0  0  0  0  0  0  0  0  0  0  0
    6.2375    1.7625    0.0000 C   0  0  0  0  0  0  0  0  0  0  0  0
    3.4542    4.2042    0.0000 C   0  0  0  0  0  0  0  0  0  0  0  0
    3.6167    4.9375    0.0000 O   0  0  0  0  0  0  0  0  0  0  0  0
    1.8750    1.9208    0.0000 C   0  0  0  0  0  0  0  0  0  0  0  0
    1.2292    3.0458    0.0000 C   0  0  0  0  0  0  0  0  0  0  0  0
    0.5792    2.6708    0.0000 C   0  0  0  0  0  0  0  0  0  0  0  0
    1.2292    1.5458    0.0000 C   0  0  0  0  0  0  0  0  0  0  0  0
   -0.0708    1.5458    0.0000 C   0  0  0  0  0  0  0  0  0  0  0  0
    2.7417    3.9833    0.0000 C   0  0  0  0  0  0  0  0  0  0  0  0
  2  1  2  0  0  0  0
  3  2  1  0  0  0  0
  4  7  1  0  0  0  0
  5  1  1  0  0  0  0
  6  4  1  0  0  0  0
  7  1  1  0  0  0  0
  8  2  1  0  0  0  0
  9  5  1  0  0  0  0
 10  9  1  0  0  0  0
 11 10  1  0  0  0  0
 12  5  1  0  0  0  0
 13  6  2  0  0  0  0
 14 22  1  0  0  0  0
 15  7  2  0  0  0  0
 16  3  1  0  0  0  0
 17  4  1  0  0  0  0
 18 12  1  0  0  0  0
 19 18  2  0  0  0  0
 20 11  1  0  0  0  0
 21 11  1  0  0  0  0
 22 21  1  0  0  0  0
 23 20  1  0  0  0  0
 24 14  1  0  0  0  0
 25 18  1  0  0  0  0
  8  9  2  0  0  0  0
  3  6  1  0  0  0  0
 14 23  1  0  0  0  0
M  END
>  <ID> (7994128)
7994128

>  <Supplier> (7994128)
ChemBridge

>  <clogP> (7994128)
-2.300000000000000e-001

>  <RB> (7994128)
4

>  <tPSA> (7994128)
8.537000000000001e+001

>  <Hacc> (7994128)
6

>  <Hdon> (7994128)
0

>  <LogSw> (7994128)
-2.854000000000000e+000

>  <Group> (7994128)
2

>  <Core> (7994128)
249

$$$$
7173928
  -ISIS-  03310818252D

 28 30  0  0  0  0  0  0  0  0999 V2000
    4.6625   -2.6750    0.0000 S   0  0  3  0  0  0  0  0  0  0  0  0
    4.6625   -3.5000    0.0000 N   0  0  3  0  0  0  0  0  0  0  0  0
    7.5125   -5.1500    0.0000 C   0  0  0  0  0  0  0  0  0  0  0  0
    8.2250   -4.7292    0.0000 N   0  0  0  0  0  0  0  0  0  0  0  0
    5.0750   -1.9625    0.0000 O   0  0  0  0  0  0  0  0  0  0  0  0
    5.4875   -2.6750    0.0000 O   0  0  0  0  0  0  0  0  0  0  0  0
    5.3750   -3.9125    0.0000 C   0  0  0  0  0  0  0  0  0  0  0  0
    6.8000   -4.7375    0.0000 C   0  0  0  0  0  0  0  0  0  0  0  0
    3.9500   -3.9125    0.0000 C   0  0  0  0  0  0  0  0  0  0  0  0
    7.5125   -5.9750    0.0000 O   0  0  0  0  0  0  0  0  0  0  0  0
    6.0875   -3.4917    0.0000 C   0  0  0  0  0  0  0  0  0  0  0  0
    5.3750   -4.7375    0.0000 C   0  0  0  0  0  0  0  0  0  0  0  0
    6.8000   -3.9125    0.0000 C   0  0  0  0  0  0  0  0  0  0  0  0
    6.0792   -5.1500    0.0000 C   0  0  0  0  0  0  0  0  0  0  0  0
    3.9500   -2.2625    0.0000 C   0  0  0  0  0  0  0  0  0  0  0  0
    8.4292   -3.9167    0.0000 C   0  0  3  0  0  0  0  0  0  0  0  0
    3.2375   -3.5000    0.0000 C   0  0  0  0  0  0  0  0  0  0  0  0
    2.5250   -3.9125    0.0000 C   0  0  0  0  0  0  0  0  0  0  0  0
    3.2375   -2.6750    0.0000 C   0  0  0  0  0  0  0  0  0  0  0  0
    7.7875   -3.3792    0.0000 C   0  0  0  0  0  0  0  0  0  0  0  0
    9.2375   -3.7542    0.0000 C   0  0  0  0  0  0  0  0  0  0  0  0
    2.5292   -2.2625    0.0000 C   0  0  0  0  0  0  0  0  0  0  0  0
    1.8125   -3.5000    0.0000 C   0  0  0  0  0  0  0  0  0  0  0  0
    7.8042   -2.5542    0.0000 C   0  0  0  0  0  0  0  0  0  0  0  0
    9.6167   -3.0167    0.0000 C   0  0  0  0  0  0  0  0  0  0  0  0
    9.2792   -2.2625    0.0000 C   0  0  0  0  0  0  0  0  0  0  0  0
    1.8125   -2.6750    0.0000 C   0  0  0  0  0  0  0  0  0  0  0  0
    8.4667   -2.0542    0.0000 C   0  0  0  0  0  0  0  0  0  0  0  0
  2  1  1  0  0  0  0
  3  8  1  0  0  0  0
  4  3  1  0  0  0  0
  5  1  2  0  0  0  0
  6  1  2  0  0  0  0
  7  2  1  0  0  0  0
  8 14  2  0  0  0  0
  9  2  1  0  0  0  0
 10  3  2  0  0  0  0
 11  7  1  0  0  0  0
 12  7  2  0  0  0  0
 13 11  2  0  0  0  0
 14 12  1  0  0  0  0
 15  1  1  0  0  0  0
 16  4  1  0  0  0  0
 17  9  1  0  0  0  0
 18 17  1  0  0  0  0
 19 17  2  0  0  0  0
 20 16  1  0  0  0  0
 21 16  1  0  0  0  0
 22 19  1  0  0  0  0
 23 18  2  0  0  0  0
 24 20  1  0  0  0  0
 25 21  1  0  0  0  0
 26 25  1  0  0  0  0
 27 22  2  0  0  0  0
 28 24  1  0  0  0  0
 13  8  1  0  0  0  0
 27 23  1  0  0  0  0
 26 28  1  0  0  0  0
M  END
>  <ID> (7173928)
7173928

>  <Supplier> (7173928)
ChemBridge

>  <clogP> (7173928)
4.280000000000000e+000

>  <RB> (7173928)
5

>  <tPSA> (7173928)
6.647999999999998e+001

>  <Hacc> (7173928)
3

>  <Hdon> (7173928)
1

>  <LogSw> (7173928)
-5.775000000000000e+000

>  <Group> (7173928)
3

>  <Core> (7173928)
154

$$$$
5334128
  -ISIS-  03310818222D

 16 17  0  0  0  0  0  0  0  0999 V2000
    0.8000    0.7208    0.0000 C   0  0  0  0  0  0  0  0  0  0  0  0
    0.1167    1.1000    0.0000 C   0  0  0  0  0  0  0  0  0  0  0  0
    0.8000   -0.0542    0.0000 O   0  0  0  0  0  0  0  0  0  0  0  0
    1.4542   -0.4500    0.0000 C   0  0  0  0  0  0  0  0  0  0  0  0
    0.0167    1.8833    0.0000 S   0  0  0  0  0  0  0  0  0  0  0  0
    2.1542   -0.0542    0.0000 C   0  0  0  0  0  0  0  0  0  0  0  0
   -0.6000    0.7833    0.0000 C   0  0  0  0  0  0  0  0  0  0  0  0
    1.4792    1.1208    0.0000 O   0  0  0  0  0  0  0  0  0  0  0  0
   -0.7500    2.0458    0.0000 C   0  0  0  0  0  0  0  0  0  0  0  0
   -1.1333    1.3500    0.0000 C   0  0  0  0  0  0  0  0  0  0  0  0
    2.8167   -0.4500    0.0000 C   0  0  0  0  0  0  0  0  0  0  0  0
    1.4542   -1.2292    0.0000 C   0  0  0  0  0  0  0  0  0  0  0  0
    2.1292   -1.6042    0.0000 C   0  0  0  0  0  0  0  0  0  0  0  0
    2.1875    0.7125    0.0000 C   0  0  0  0  0  0  0  0  0  0  0  0
    2.8167   -1.2292    0.0000 C   0  0  0  0  0  0  0  0  0  0  0  0
    3.4792   -0.0542    0.0000 C   0  0  0  0  0  0  0  0  0  0  0  0
  2  1  1  0  0  0  0
  3  1  1  0  0  0  0
  4  3  1  0  0  0  0
  5  2  1  0  0  0  0
  6  4  1  0  0  0  0
  7  2  2  0  0  0  0
  8  1  2  0  0  0  0
  9  5  1  0  0  0  0
 10  7  1  0  0  0  0
 11  6  2  0  0  0  0
 12  4  2  0  0  0  0
 13 12  1  0  0  0  0
 14  6  1  0  0  0  0
 15 13  2  0  0  0  0
 16 11  1  0  0  0  0
  9 10  2  0  0  0  0
 15 11  1  0  0  0  0
M  END
>  <ID> (5334128)
5334128

>  <Supplier> (5334128)
ChemBridge

>  <clogP> (5334128)
4.290000000000000e+000

>  <RB> (5334128)
3

>  <tPSA> (5334128)
2.630000000000000e+001

>  <Hacc> (5334128)
2

>  <Hdon> (5334128)
0

>  <LogSw> (5334128)
-4.559000000000000e+000

>  <Group> (5334128)
2

>  <Core> (5334128)
266

$$$$
9069218
  -ISIS-  03310818292D

 21 22  0  0  0  0  0  0  0  0999 V2000
    3.9750    2.5000    0.0000 S   0  0  3  0  0  0  0  0  0  0  0  0
    4.6250    2.1250    0.0000 C   0  0  0  0  0  0  0  0  0  0  0  0
    4.6250    1.3750    0.0000 C   0  0  0  0  0  0  0  0  0  0  0  0
    3.4417    1.9708    0.0000 N   0  0  0  0  0  0  0  0  0  0  0  0
    5.2750    2.5000    0.0000 C   0  0  0  0  0  0  0  0  0  0  0  0
    4.4042    3.1125    0.0000 O   0  0  0  0  0  0  0  0  0  0  0  0
    3.4000    2.9833    0.0000 O   0  0  0  0  0  0  0  0  0  0  0  0
    5.2750    1.0000    0.0000 C   0  0  0  0  0  0  0  0  0  0  0  0
    5.9250    2.1250    0.0000 C   0  0  0  0  0  0  0  0  0  0  0  0
    5.9250    1.3750    0.0000 C   0  0  0  0  0  0  0  0  0  0  0  0
    2.7167    2.1625    0.0000 C   0  0  0  0  0  0  0  0  0  0  0  0
    5.2750    3.2500    0.0000 O   0  0  0  0  0  0  0  0  0  0  0  0
    1.2667    2.5500    0.0000 C   0  0  0  0  0  0  0  0  0  0  0  0
    0.5417    2.7458    0.0000 F   0  0  0  0  0  0  0  0  0  0  0  0
    2.1917    1.6333    0.0000 C   0  0  0  0  0  0  0  0  0  0  0  0
    2.5250    2.8958    0.0000 C   0  0  0  0  0  0  0  0  0  0  0  0
    1.8042    3.0833    0.0000 C   0  0  0  0  0  0  0  0  0  0  0  0
    1.4667    1.8250    0.0000 C   0  0  0  0  0  0  0  0  0  0  0  0
    5.2750    0.2500    0.0000 C   0  0  0  0  0  0  0  0  0  0  0  0
    6.5750    1.0000    0.0000 C   0  0  0  0  0  0  0  0  0  0  0  0
    5.9250    3.6250    0.0000 C   0  0  0  0  0  0  0  0  0  0  0  0
  2  1  1  0  0  0  0
  3  2  1  0  0  0  0
  4  1  1  0  0  0  0
  5  2  2  0  0  0  0
  6  1  2  0  0  0  0
  7  1  2  0  0  0  0
  8  3  2  0  0  0  0
  9  5  1  0  0  0  0
 10  9  2  0  0  0  0
 11  4  1  0  0  0  0
 12  5  1  0  0  0  0
 13 17  1  0  0  0  0
 14 13  1  0  0  0  0
 15 11  2  0  0  0  0
 16 11  1  0  0  0  0
 17 16  2  0  0  0  0
 18 15  1  0  0  0  0
 19  8  1  0  0  0  0
 20 10  1  0  0  0  0
 21 12  1  0  0  0  0
 13 18  2  0  0  0  0
 10  8  1  0  0  0  0
M  END
>  <ID> (9069218)
9069218

>  <Supplier> (9069218)
ChemBridge

>  <clogP> (9069218)
3.545000000000000e+000

>  <RB> (9069218)
2

>  <tPSA> (9069218)
5.540000000000000e+001

>  <Hacc> (9069218)
3

>  <Hdon> (9069218)
1

>  <LogSw> (9069218)
-4.879000000000000e+000

>  <Group> (9069218)
1

>  <Core> (9069218)
516

$$$$
7926271
  -ISIS-  03310818272D

 30 32  0  0  0  0  0  0  0  0999 V2000
   12.6500    3.0708    0.0000 N   0  0  3  0  0  0  0  0  0  0  0  0
   11.9625    2.7708    0.0000 C   0  0  0  0  0  0  0  0  0  0  0  0
   13.1500    2.5083    0.0000 C   0  0  0  0  0  0  0  0  0  0  0  0
   12.0417    2.0208    0.0000 N   0  0  0  0  0  0  0  0  0  0  0  0
   12.7750    1.8583    0.0000 N   0  0  0  0  0  0  0  0  0  0  0  0
   11.3125    3.1458    0.0000 C   0  0  0  0  0  0  0  0  0  0  0  0
   10.6625    2.7708    0.0000 C   0  0  0  0  0  0  0  0  0  0  0  0
   13.8917    2.5875    0.0000 S   0  0  0  0  0  0  0  0  0  0  0  0
   10.0167    3.1458    0.0000 N   0  0  0  0  0  0  0  0  0  0  0  0
   15.0792    2.0583    0.0000 C   0  0  0  0  0  0  0  0  0  0  0  0
   14.3375    1.9833    0.0000 C   0  0  0  0  0  0  0  0  0  0  0  0
    9.3667    2.7708    0.0000 C   0  0  0  0  0  0  0  0  0  0  0  0
   10.6625    2.0208    0.0000 O   0  0  0  0  0  0  0  0  0  0  0  0
    8.7167    3.1458    0.0000 C   0  0  0  0  0  0  0  0  0  0  0  0
   12.8042    3.8000    0.0000 C   0  0  0  0  0  0  0  0  0  0  0  0
   15.3875    2.7458    0.0000 O   0  0  0  0  0  0  0  0  0  0  0  0
   15.5250    1.4583    0.0000 C   0  0  0  0  0  0  0  0  0  0  0  0
   13.5167    4.0292    0.0000 C   0  0  0  0  0  0  0  0  0  0  0  0
   13.6750    4.7625    0.0000 C   0  0  0  0  0  0  0  0  0  0  0  0
    8.0667    2.7708    0.0000 C   0  0  0  0  0  0  0  0  0  0  0  0
    7.4167    3.1458    0.0000 O   0  0  0  0  0  0  0  0  0  0  0  0
    8.7167    1.6375    0.0000 C   0  0  0  0  0  0  0  0  0  0  0  0
    9.3667    2.0208    0.0000 C   0  0  0  0  0  0  0  0  0  0  0  0
   15.2167    0.7708    0.0000 C   0  0  0  0  0  0  0  0  0  0  0  0
   16.2667    1.5333    0.0000 C   0  0  0  0  0  0  0  0  0  0  0  0
    8.0667    2.0208    0.0000 C   0  0  0  0  0  0  0  0  0  0  0  0
    6.7667    2.7708    0.0000 C   0  0  0  0  0  0  0  0  0  0  0  0
   15.6542    0.1625    0.0000 C   0  0  0  0  0  0  0  0  0  0  0  0
   16.7125    0.9250    0.0000 C   0  0  0  0  0  0  0  0  0  0  0  0
   16.4042    0.2375    0.0000 C   0  0  0  0  0  0  0  0  0  0  0  0
  2  1  1  0  0  0  0
  3  1  1  0  0  0  0
  4  2  2  0  0  0  0
  5  3  2  0  0  0  0
  6  2  1  0  0  0  0
  7  6  1  0  0  0  0
  8  3  1  0  0  0  0
  9  7  1  0  0  0  0
 10 11  1  0  0  0  0
 11  8  1  0  0  0  0
 12  9  1  0  0  0  0
 13  7  2  0  0  0  0
 14 12  2  0  0  0  0
 15  1  1  0  0  0  0
 16 10  2  0  0  0  0
 17 10  1  0  0  0  0
 18 15  1  0  0  0  0
 19 18  2  0  0  0  0
 20 14  1  0  0  0  0
 21 20  1  0  0  0  0
 22 23  2  0  0  0  0
 23 12  1  0  0  0  0
 24 17  2  0  0  0  0
 25 17  1  0  0  0  0
 26 22  1  0  0  0  0
 27 21  1  0  0  0  0
 28 24  1  0  0  0  0
 29 25  2  0  0  0  0
 30 29  1  0  0  0  0
  5  4  1  0  0  0  0
 30 28  2  0  0  0  0
 26 20  2  0  0  0  0
M  END
>  <ID> (7926271)
7926271

>  <Supplier> (7926271)
ChemBridge

>  <clogP> (7926271)
1.963000000000000e+000

>  <RB> (7926271)
9

>  <tPSA> (7926271)
8.611000000000001e+001

>  <Hacc> (7926271)
5

>  <Hdon> (7926271)
1

>  <LogSw> (7926271)
-3.956000000000000e+000

>  <Group> (7926271)
1

>  <Core> (7926271)
027

$$$$
5334123
  -ISIS-  03310818212D

 18 19  0  0  0  0  0  0  0  0999 V2000
    1.4292   -1.1292    0.0000 N   0  0  3  0  0  0  0  0  0  0  0  0
    0.7792   -0.7542    0.0000 C   0  0  0  0  0  0  0  0  0  0  0  0
   -2.4458   -1.4000    0.0000 C   0  0  0  0  0  0  0  0  0  0  0  0
   -2.3708   -2.1500    0.0000 C   0  0  0  0  0  0  0  0  0  0  0  0
    0.1292   -1.1292    0.0000 C   0  0  0  0  0  0  0  0  0  0  0  0
    0.7792   -0.0042    0.0000 O   0  0  0  0  0  0  0  0  0  0  0  0
   -1.8458   -0.9542    0.0000 C   0  0  0  0  0  0  0  0  0  0  0  0
   -0.5458   -0.8292    0.0000 O   0  0  0  0  0  0  0  0  0  0  0  0
   -1.6833   -2.4500    0.0000 C   0  0  0  0  0  0  0  0  0  0  0  0
   -1.1500   -1.2667    0.0000 C   0  0  0  0  0  0  0  0  0  0  0  0
   -2.9708   -2.5875    0.0000 Br  0  0  0  0  0  0  0  0  0  0  0  0
   -1.0708   -2.0042    0.0000 C   0  0  0  0  0  0  0  0  0  0  0  0
    2.0792   -0.7542    0.0000 C   0  0  0  0  0  0  0  0  0  0  0  0
    1.4292   -1.8792    0.0000 C   0  0  0  0  0  0  0  0  0  0  0  0
   -3.1333   -1.1000    0.0000 C   0  0  0  0  0  0  0  0  0  0  0  0
    2.7292   -1.1375    0.0000 C   0  0  0  0  0  0  0  0  0  0  0  0
    2.0792   -2.2542    0.0000 C   0  0  0  0  0  0  0  0  0  0  0  0
    2.7292   -1.8875    0.0000 C   0  0  0  0  0  0  0  0  0  0  0  0
  2  1  1  0  0  0  0
  3  7  2  0  0  0  0
  4  9  2  0  0  0  0
  5  2  1  0  0  0  0
  6  2  2  0  0  0  0
  7 10  1  0  0  0  0
  8  5  1  0  0  0  0
  9 12  1  0  0  0  0
 10  8  1  0  0  0  0
 11  4  1  0  0  0  0
 12 10  2  0  0  0  0
 13  1  1  0  0  0  0
 14  1  1  0  0  0  0
 15  3  1  0  0  0  0
 16 13  1  0  0  0  0
 17 14  1  0  0  0  0
 18 17  1  0  0  0  0
 18 16  1  0  0  0  0
  3  4  1  0  0  0  0
M  END
>  <ID> (5334123)
5334123

>  <Supplier> (5334123)
ChemBridge

>  <clogP> (5334123)
3.660000000000000e+000

>  <RB> (5334123)
3

>  <tPSA> (5334123)
2.954000000000000e+001

>  <Hacc> (5334123)
2

>  <Hdon> (5334123)
0

>  <LogSw> (5334123)
-4.603000000000000e+000

>  <Group> (5334123)
3

>  <Core> (5334123)
315

$$$$
7994120
  -ISIS-  03310818282D

 23 24  0  0  0  0  0  0  0  0999 V2000
    2.6375    1.3583    0.0000 S   0  0  3  0  0  0  0  0  0  0  0  0
    6.0125    2.0083    0.0000 C   0  0  0  0  0  0  0  0  0  0  0  0
    5.6375    1.3583    0.0000 N   0  0  0  0  0  0  0  0  0  0  0  0
    6.7625    2.0083    0.0000 C   0  0  0  0  0  0  0  0  0  0  0  0
    3.3875    1.3583    0.0000 C   0  0  0  0  0  0  0  0  0  0  0  0
    1.8917    1.2250    0.0000 O   0  0  0  0  0  0  0  0  0  0  0  0
    2.7000    0.6083    0.0000 O   0  0  0  0  0  0  0  0  0  0  0  0
    2.4417    2.0833    0.0000 N   0  0  0  0  0  0  0  0  0  0  0  0
    5.6375    2.6583    0.0000 O   0  0  0  0  0  0  0  0  0  0  0  0
    7.1375    1.3583    0.0000 C   0  0  0  0  0  0  0  0  0  0  0  0
    3.7625    0.7083    0.0000 C   0  0  0  0  0  0  0  0  0  0  0  0
    3.7625    2.0083    0.0000 C   0  0  0  0  0  0  0  0  0  0  0  0
    4.8875    1.3583    0.0000 C   0  0  0  0  0  0  0  0  0  0  0  0
    1.5250    2.9958    0.0000 C   0  0  0  0  0  0  0  0  0  0  0  0
    0.8000    3.1958    0.0000 C   0  0  0  0  0  0  0  0  0  0  0  0
    4.5125    0.7083    0.0000 C   0  0  0  0  0  0  0  0  0  0  0  0
    4.5125    2.0083    0.0000 C   0  0  0  0  0  0  0  0  0  0  0  0
    1.7167    2.2750    0.0000 C   0  0  0  0  0  0  0  0  0  0  0  0
    7.1375    2.6583    0.0000 C   0  0  0  0  0  0  0  0  0  0  0  0
    6.7625    0.7083    0.0000 C   0  0  0  0  0  0  0  0  0  0  0  0
    7.8875    1.3583    0.0000 C   0  0  0  0  0  0  0  0  0  0  0  0
    7.8875    2.6583    0.0000 C   0  0  0  0  0  0  0  0  0  0  0  0
    8.2625    2.0083    0.0000 C   0  0  0  0  0  0  0  0  0  0  0  0
  2  3  1  0  0  0  0
  3 13  1  0  0  0  0
  4  2  1  0  0  0  0
  5  1  1  0  0  0  0
  6  1  2  0  0  0  0
  7  1  2  0  0  0  0
  8  1  1  0  0  0  0
  9  2  2  0  0  0  0
 10  4  2  0  0  0  0
 11  5  2  0  0  0  0
 12  5  1  0  0  0  0
 13 17  1  0  0  0  0
 14 18  1  0  0  0  0
 15 14  2  0  0  0  0
 16 11  1  0  0  0  0
 17 12  2  0  0  0  0
 18  8  1  0  0  0  0
 19  4  1  0  0  0  0
 20 10  1  0  0  0  0
 21 10  1  0  0  0  0
 22 19  2  0  0  0  0
 23 22  1  0  0  0  0
 16 13  2  0  0  0  0
 21 23  2  0  0  0  0
M  END
>  <ID> (7994120)
7994120

>  <Supplier> (7994120)
ChemBridge

>  <clogP> (7994120)
2.680000000000000e+000

>  <RB> (7994120)
5

>  <tPSA> (7994120)
7.527000000000000e+001

>  <Hacc> (7994120)
4

>  <Hdon> (7994120)
2

>  <LogSw> (7994120)
-3.898000000000000e+000

>  <Group> (7994120)
2

>  <Core> (7994120)
234

$$$$
7994123
  -ISIS-  03310818282D

 26 27  0  0  0  0  0  0  0  0999 V2000
    5.8042   -2.6417    0.0000 C   0  0  0  0  0  0  0  0  0  0  0  0
    6.4750   -3.1292    0.0000 C   0  0  0  0  0  0  0  0  0  0  0  0
    3.6042   -2.6000    0.0000 C   0  0  3  0  0  0  0  0  0  0  0  0
    6.0625   -1.8542    0.0000 S   0  0  0  0  0  0  0  0  0  0  0  0
    2.9417   -2.1167    0.0000 N   0  0  3  0  0  0  0  0  0  0  0  0
    7.1500   -2.6417    0.0000 C   0  0  0  0  0  0  0  0  0  0  0  0
    5.0167   -2.9000    0.0000 N   0  0  0  0  0  0  0  0  0  0  0  0
    4.3917   -2.3417    0.0000 C   0  0  0  0  0  0  0  0  0  0  0  0
    6.8917   -1.8542    0.0000 C   0  0  0  0  0  0  0  0  0  0  0  0
    2.2667   -2.6000    0.0000 N   0  0  0  0  0  0  0  0  0  0  0  0
    2.5250   -3.3917    0.0000 C   0  0  0  0  0  0  0  0  0  0  0  0
    3.3542   -3.3917    0.0000 C   0  0  0  0  0  0  0  0  0  0  0  0
    6.4750   -3.9542    0.0000 C   0  0  0  0  0  0  0  0  0  0  0  0
    4.5667   -1.5375    0.0000 O   0  0  0  0  0  0  0  0  0  0  0  0
   10.1417   -3.5667    0.0000 C   0  0  0  0  0  0  0  0  0  0  0  0
    2.0375   -4.0625    0.0000 O   0  0  0  0  0  0  0  0  0  0  0  0
    5.7542   -4.3750    0.0000 O   0  0  0  0  0  0  0  0  0  0  0  0
   10.5667   -2.8542    0.0000 O   0  0  0  0  0  0  0  0  0  0  0  0
    7.1917   -4.3750    0.0000 O   0  0  0  0  0  0  0  0  0  0  0  0
    7.9792   -2.6417    0.0000 C   0  0  0  0  0  0  0  0  0  0  0  0
    2.9417   -1.2917    0.0000 C   0  0  0  0  0  0  0  0  0  0  0  0
    7.5625   -1.3750    0.0000 C   0  0  0  0  0  0  0  0  0  0  0  0
   10.5500   -4.2792    0.0000 O   0  0  0  0  0  0  0  0  0  0  0  0
    8.2292   -1.8542    0.0000 C   0  0  0  0  0  0  0  0  0  0  0  0
    9.3167   -3.5542    0.0000 C   0  0  0  0  0  0  0  0  0  0  0  0
    7.1917   -5.2042    0.0000 C   0  0  0  0  0  0  0  0  0  0  0  0
  2  1  2  0  0  0  0
  3  8  1  0  0  0  0
  4  1  1  0  0  0  0
  5  3  1  0  0  0  0
  6  2  1  0  0  0  0
  7  1  1  0  0  0  0
  8  7  1  0  0  0  0
  9  4  1  0  0  0  0
 10  5  1  0  0  0  0
 11 12  1  0  0  0  0
 12  3  1  0  0  0  0
 13  2  1  0  0  0  0
 14  8  2  0  0  0  0
 16 11  2  0  0  0  0
 17 13  2  0  0  0  0
 18 15  2  0  0  0  0
 19 13  1  0  0  0  0
 20  6  1  0  0  0  0
 21  5  1  0  0  0  0
 22  9  1  0  0  0  0
 23 15  1  0  0  0  0
 24 20  1  0  0  0  0
 25 15  1  0  0  0  0
 26 19  1  0  0  0  0
  9  6  2  0  0  0  0
 22 24  1  0  0  0  0
 11 10  1  0  0  0  0
M  END
>  <ID> (7994123)
7994123

>  <Supplier> (7994123)
ChemBridge

>  <clogP> (7994123)
-2.890000000000000e+000

>  <RB> (7994123)
3

>  <tPSA> (7994123)
1.250400000000000e+002

>  <Hacc> (7994123)
6

>  <Hdon> (7994123)
3

>  <LogSw> (7994123)
-4.000000000000000e-001

>  <Group> (7994123)
3

>  <Core> (7994123)
098

$$$$
7994122
  -ISIS-  03310818282D

 28 30  0  0  0  0  0  0  0  0999 V2000
   11.6750    0.6083    0.0000 C   0  0  0  0  0  0  0  0  0  0  0  0
   11.6750    1.3583    0.0000 C   0  0  0  0  0  0  0  0  0  0  0  0
   10.9542    0.3708    0.0000 N   0  0  0  0  0  0  0  0  0  0  0  0
   10.9542    1.5875    0.0000 O   0  0  0  0  0  0  0  0  0  0  0  0
   10.5167    0.9833    0.0000 C   0  0  0  0  0  0  0  0  0  0  0  0
   12.2792    0.1625    0.0000 C   0  0  0  0  0  0  0  0  0  0  0  0
   12.2792    1.7958    0.0000 N   0  0  0  0  0  0  0  0  0  0  0  0
   12.8875   -0.2792    0.0000 N   0  0  0  0  0  0  0  0  0  0  0  0
    9.7667    0.9833    0.0000 C   0  0  0  0  0  0  0  0  0  0  0  0
    7.5167    2.2833    0.0000 C   0  0  0  0  0  0  0  0  0  0  0  0
    9.3917    1.6333    0.0000 C   0  0  0  0  0  0  0  0  0  0  0  0
    7.1417    1.6333    0.0000 C   0  0  0  0  0  0  0  0  0  0  0  0
    8.2667    2.2833    0.0000 C   0  0  0  0  0  0  0  0  0  0  0  0
    8.6417    1.6333    0.0000 C   0  0  0  0  0  0  0  0  0  0  0  0
   12.9667    1.4958    0.0000 C   0  0  0  0  0  0  0  0  0  0  0  0
    7.5167    0.9833    0.0000 C   0  0  0  0  0  0  0  0  0  0  0  0
   14.3375    0.8833    0.0000 C   0  0  0  0  0  0  0  0  0  0  0  0
    8.2667    0.9833    0.0000 C   0  0  0  0  0  0  0  0  0  0  0  0
    7.1417    2.9333    0.0000 O   0  0  0  0  0  0  0  0  0  0  0  0
   13.5750    1.9333    0.0000 C   0  0  0  0  0  0  0  0  0  0  0  0
   13.0417    0.7458    0.0000 C   0  0  0  0  0  0  0  0  0  0  0  0
    6.3917    1.6333    0.0000 O   0  0  0  0  0  0  0  0  0  0  0  0
   14.2542    1.6250    0.0000 C   0  0  0  0  0  0  0  0  0  0  0  0
   13.7292    0.4375    0.0000 C   0  0  0  0  0  0  0  0  0  0  0  0
   15.0250    0.5750    0.0000 O   0  0  0  0  0  0  0  0  0  0  0  0
    7.5167    3.5833    0.0000 C   0  0  0  0  0  0  0  0  0  0  0  0
    6.0167    0.9833    0.0000 C   0  0  0  0  0  0  0  0  0  0  0  0
   15.1000   -0.1667    0.0000 C   0  0  0  0  0  0  0  0  0  0  0  0
  2  1  2  0  0  0  0
  3  1  1  0  0  0  0
  4  2  1  0  0  0  0
  5  3  2  0  0  0  0
  6  1  1  0  0  0  0
  7  2  1  0  0  0  0
  8  6  3  0  0  0  0
  9  5  1  0  0  0  0
 10 13  2  0  0  0  0
 11  9  2  0  0  0  0
 12 16  2  0  0  0  0
 13 14  1  0  0  0  0
 14 11  1  0  0  0  0
 15  7  1  0  0  0  0
 16 18  1  0  0  0  0
 17 24  2  0  0  0  0
 18 14  2  0  0  0  0
 19 10  1  0  0  0  0
 20 15  1  0  0  0  0
 21 15  2  0  0  0  0
 22 12  1  0  0  0  0
 23 20  2  0  0  0  0
 24 21  1  0  0  0  0
 25 17  1  0  0  0  0
 26 19  1  0  0  0  0
 27 22  1  0  0  0  0
 28 25  1  0  0  0  0
  4  5  1  0  0  0  0
 17 23  1  0  0  0  0
 10 12  1  0  0  0  0
M  END
>  <ID> (7994122)
7994122

>  <Supplier> (7994122)
ChemBridge

>  <clogP> (7994122)
4.100000000000000e+000

>  <RB> (7994122)
4

>  <tPSA> (7994122)
8.954000000000002e+001

>  <Hacc> (7994122)
6

>  <Hdon> (7994122)
1

>  <LogSw> (7994122)
-5.718000000000000e+000

>  <Group> (7994122)
2

>  <Core> (7994122)
261

$$$$
9069212
  -ISIS-  03310818292D

 23 25  0  0  0  0  0  0  0  0999 V2000
    6.0167    1.8958    0.0000 S   0  0  3  0  0  0  0  0  0  0  0  0
    5.2667    1.8958    0.0000 C   0  0  0  0  0  0  0  0  0  0  0  0
    6.2125    1.1708    0.0000 N   0  0  0  0  0  0  0  0  0  0  0  0
    2.6417    1.2458    0.0000 C   0  0  0  0  0  0  0  0  0  0  0  0
    3.0167    1.8958    0.0000 N   0  0  0  0  0  0  0  0  0  0  0  0
    4.8917    2.5458    0.0000 C   0  0  0  0  0  0  0  0  0  0  0  0
    3.7667    1.8958    0.0000 C   0  0  0  0  0  0  0  0  0  0  0  0
    4.1417    2.5458    0.0000 C   0  0  0  0  0  0  0  0  0  0  0  0
    6.9292    0.9833    0.0000 C   0  0  3  0  0  0  0  0  0  0  0  0
    6.7542    2.0333    0.0000 O   0  0  0  0  0  0  0  0  0  0  0  0
    5.9500    2.6458    0.0000 O   0  0  0  0  0  0  0  0  0  0  0  0
    7.4667    0.4500    0.0000 C   0  0  0  0  0  0  0  0  0  0  0  0
    7.6542    1.1708    0.0000 C   0  0  0  0  0  0  0  0  0  0  0  0
    3.0167    0.6000    0.0000 O   0  0  0  0  0  0  0  0  0  0  0  0
    1.8917    1.2458    0.0000 C   0  0  0  0  0  0  0  0  0  0  0  0
    4.8917    1.2458    0.0000 C   0  0  0  0  0  0  0  0  0  0  0  0
    4.1417    1.2458    0.0000 C   0  0  0  0  0  0  0  0  0  0  0  0
    3.7667    3.1958    0.0000 F   0  0  0  0  0  0  0  0  0  0  0  0
    1.5167    1.8958    0.0000 C   0  0  0  0  0  0  0  0  0  0  0  0
    1.5167    0.6000    0.0000 C   0  0  0  0  0  0  0  0  0  0  0  0
    0.7667    0.6000    0.0000 C   0  0  0  0  0  0  0  0  0  0  0  0
    0.7667    1.8958    0.0000 C   0  0  0  0  0  0  0  0  0  0  0  0
    0.3917    1.2458    0.0000 C   0  0  0  0  0  0  0  0  0  0  0  0
  2  1  1  0  0  0  0
  3  1  1  0  0  0  0
  4  5  1  0  0  0  0
  5  7  1  0  0  0  0
  6  2  1  0  0  0  0
  7 17  2  0  0  0  0
  8  6  2  0  0  0  0
  9  3  1  0  0  0  0
 10  1  2  0  0  0  0
 11  1  2  0  0  0  0
 12  9  1  0  0  0  0
 13  9  1  0  0  0  0
 14  4  2  0  0  0  0
 15  4  1  0  0  0  0
 16  2  2  0  0  0  0
 17 16  1  0  0  0  0
 18  8  1  0  0  0  0
 19 15  1  0  0  0  0
 20 15  2  0  0  0  0
 21 20  1  0  0  0  0
 22 19  2  0  0  0  0
 23 21  2  0  0  0  0
 12 13  1  0  0  0  0
  7  8  1  0  0  0  0
 23 22  1  0  0  0  0
M  END
>  <ID> (9069212)
9069212

>  <Supplier> (9069212)
ChemBridge

>  <clogP> (9069212)
1.977000000000000e+000

>  <RB> (9069212)
4

>  <tPSA> (9069212)
7.527000000000000e+001

>  <Hacc> (9069212)
4

>  <Hdon> (9069212)
2

>  <LogSw> (9069212)
-3.924000000000000e+000

>  <Group> (9069212)
2

>  <Core> (9069212)
234

$$$$
5334125
  -ISIS-  03310818222D

 17 17  0  0  0  0  0  0  0  0999 V2000
    2.5042   -1.1500    0.0000 C   0  0  0  0  0  0  0  0  0  0  0  0
    3.1542   -1.5167    0.0000 N   0  0  0  0  0  0  0  0  0  0  0  0
    4.4542   -1.5167    0.0000 C   0  0  0  0  0  0  0  0  0  0  0  0
    3.8042   -1.1500    0.0000 C   0  0  0  0  0  0  0  0  0  0  0  0
    2.5042   -0.4000    0.0000 O   0  0  0  0  0  0  0  0  0  0  0  0
    5.1042   -1.1500    0.0000 C   0  0  0  0  0  0  0  0  0  0  0  0
    1.8542   -1.5167    0.0000 C   0  0  3  0  0  0  0  0  0  0  0  0
    5.1042   -0.4000    0.0000 O   0  0  0  0  0  0  0  0  0  0  0  0
    4.4542   -2.2667    0.0000 C   0  0  0  0  0  0  0  0  0  0  0  0
    5.7542   -1.5167    0.0000 C   0  0  0  0  0  0  0  0  0  0  0  0
    1.2042   -1.1500    0.0000 C   0  0  0  0  0  0  0  0  0  0  0  0
    1.8542   -2.2667    0.0000 C   0  0  0  0  0  0  0  0  0  0  0  0
    5.7542   -0.0167    0.0000 C   0  0  0  0  0  0  0  0  0  0  0  0
    0.5542   -1.5167    0.0000 C   0  0  0  0  0  0  0  0  0  0  0  0
    1.2042   -2.6500    0.0000 C   0  0  0  0  0  0  0  0  0  0  0  0
    5.1042   -2.6500    0.0000 C   0  0  0  0  0  0  0  0  0  0  0  0
    5.7542   -2.2667    0.0000 C   0  0  0  0  0  0  0  0  0  0  0  0
  2  1  1  0  0  0  0
  3  4  1  0  0  0  0
  4  2  1  0  0  0  0
  5  1  2  0  0  0  0
  6  3  2  0  0  0  0
  7  1  1  0  0  0  0
  8  6  1  0  0  0  0
  9  3  1  0  0  0  0
 10  6  1  0  0  0  0
 11  7  1  0  0  0  0
 12  7  1  0  0  0  0
 13  8  1  0  0  0  0
 14 11  1  0  0  0  0
 15 12  1  0  0  0  0
 16  9  2  0  0  0  0
 17 16  1  0  0  0  0
 17 10  2  0  0  0  0
M  END
>  <ID> (5334125)
5334125

>  <Supplier> (5334125)
ChemBridge

>  <clogP> (5334125)
2.760000000000000e+000

>  <RB> (5334125)
3

>  <tPSA> (5334125)
3.833000000000000e+001

>  <Hacc> (5334125)
2

>  <Hdon> (5334125)
1

>  <LogSw> (5334125)
-3.274000000000000e+000

>  <Group> (5334125)
3

$$$$
6416115
  -ISIS-  03310818232D

 25 27  0  0  0  0  0  0  0  0999 V2000
   -1.0083    0.1958    0.0000 S   0  0  3  0  0  0  0  0  0  0  0  0
   -0.1833    0.1958    0.0000 N   0  0  3  0  0  0  0  0  0  0  0  0
   -1.8333    0.2083    0.0000 C   0  0  0  0  0  0  0  0  0  0  0  0
    1.4625    0.1958    0.0000 N   0  0  3  0  0  0  0  0  0  0  0  0
    2.2875    0.1958    0.0000 C   0  0  0  0  0  0  0  0  0  0  0  0
   -2.2458   -0.5000    0.0000 C   0  0  0  0  0  0  0  0  0  0  0  0
   -1.4125   -0.5167    0.0000 O   0  0  0  0  0  0  0  0  0  0  0  0
   -1.4208    0.9083    0.0000 O   0  0  0  0  0  0  0  0  0  0  0  0
    0.2292   -0.5167    0.0000 C   0  0  0  0  0  0  0  0  0  0  0  0
    0.2250    0.9083    0.0000 C   0  0  0  0  0  0  0  0  0  0  0  0
   -3.0708   -0.4917    0.0000 C   0  0  0  0  0  0  0  0  0  0  0  0
    1.0500    0.9083    0.0000 C   0  0  0  0  0  0  0  0  0  0  0  0
    1.0500   -0.5167    0.0000 C   0  0  0  0  0  0  0  0  0  0  0  0
   -3.4750    0.2250    0.0000 C   0  0  0  0  0  0  0  0  0  0  0  0
   -2.2333    0.9250    0.0000 C   0  0  0  0  0  0  0  0  0  0  0  0
    2.7000   -0.5167    0.0000 C   0  0  0  0  0  0  0  0  0  0  0  0
   -3.0583    0.9375    0.0000 C   0  0  0  0  0  0  0  0  0  0  0  0
   -4.3000    0.2458    0.0000 Cl  0  0  0  0  0  0  0  0  0  0  0  0
    2.2792   -1.2292    0.0000 O   0  0  0  0  0  0  0  0  0  0  0  0
    2.7000    0.9083    0.0000 C   0  0  0  0  0  0  0  0  0  0  0  0
   -3.4875   -1.2042    0.0000 C   0  0  0  0  0  0  0  0  0  0  0  0
    3.5167   -0.5167    0.0000 C   0  0  0  0  0  0  0  0  0  0  0  0
    2.6917   -1.9500    0.0000 C   0  0  0  0  0  0  0  0  0  0  0  0
    3.5167    0.9083    0.0000 C   0  0  0  0  0  0  0  0  0  0  0  0
    3.9375    0.1958    0.0000 C   0  0  0  0  0  0  0  0  0  0  0  0
  2  1  1  0  0  0  0
  3  1  1  0  0  0  0
  4 12  1  0  0  0  0
  5  4  1  0  0  0  0
  6  3  1  0  0  0  0
  7  1  2  0  0  0  0
  8  1  2  0  0  0  0
  9  2  1  0  0  0  0
 10  2  1  0  0  0  0
 11  6  2  0  0  0  0
 12 10  1  0  0  0  0
 13  9  1  0  0  0  0
 14 17  2  0  0  0  0
 15  3  2  0  0  0  0
 16  5  2  0  0  0  0
 17 15  1  0  0  0  0
 18 14  1  0  0  0  0
 19 16  1  0  0  0  0
 20  5  1  0  0  0  0
 21 11  1  0  0  0  0
 22 16  1  0  0  0  0
 23 19  1  0  0  0  0
 24 20  2  0  0  0  0
 25 24  1  0  0  0  0
 13  4  1  0  0  0  0
 14 11  1  0  0  0  0
 25 22  2  0  0  0  0
M  END
>  <ID> (6416115)
6416115

>  <Supplier> (6416115)
ChemBridge

>  <clogP> (6416115)
3.910000000000000e+000

>  <RB> (6416115)
2

>  <tPSA> (6416115)
4.985000000000000e+001

>  <Hacc> (6416115)
4

>  <Hdon> (6416115)
0

>  <LogSw> (6416115)
-5.316000000000000e+000

>  <Group> (6416115)
3

>  <Core> (6416115)
161

$$$$
5114344
  -ISIS-  03310818212D

 25 27  0  0  0  0  0  0  0  0999 V2000
   -1.5333   -0.6875    0.0000 C   0  0  0  0  0  0  0  0  0  0  0  0
   -1.5500   -0.0292    0.0000 N   0  0  3  0  0  0  0  0  0  0  0  0
   -0.8625   -1.0667    0.0000 C   0  0  0  0  0  0  0  0  0  0  0  0
   -2.1458    0.3000    0.0000 C   0  0  0  0  0  0  0  0  0  0  0  0
   -0.9958    0.3458    0.0000 C   0  0  0  0  0  0  0  0  0  0  0  0
   -2.1000   -1.0375    0.0000 O   0  0  0  0  0  0  0  0  0  0  0  0
   -0.8625   -1.7167    0.0000 C   0  0  0  0  0  0  0  0  0  0  0  0
   -0.3000   -0.7375    0.0000 C   0  0  0  0  0  0  0  0  0  0  0  0
   -2.1625    0.9708    0.0000 C   0  0  0  0  0  0  0  0  0  0  0  0
   -2.7125   -0.0542    0.0000 C   0  0  0  0  0  0  0  0  0  0  0  0
   -1.0125    1.0000    0.0000 C   0  0  0  0  0  0  0  0  0  0  0  0
    0.2792   -1.7167    0.0000 C   0  0  0  0  0  0  0  0  0  0  0  0
   -1.0333    2.3208    0.0000 C   0  0  0  0  0  0  0  0  0  0  0  0
    0.2792   -1.0667    0.0000 C   0  0  0  0  0  0  0  0  0  0  0  0
   -0.2125   -2.0500    0.0000 C   0  0  0  0  0  0  0  0  0  0  0  0
   -3.2708    0.2708    0.0000 C   0  0  0  0  0  0  0  0  0  0  0  0
   -2.7500    1.2833    0.0000 C   0  0  0  0  0  0  0  0  0  0  0  0
   -3.3125    0.9458    0.0000 C   0  0  0  0  0  0  0  0  0  0  0  0
   -1.0333    3.0000    0.0000 F   0  0  0  0  0  0  0  0  0  0  0  0
    1.0875   -2.1667    0.0000 F   0  0  0  0  0  0  0  0  0  0  0  0
   -1.5833    1.3125    0.0000 C   0  0  0  0  0  0  0  0  0  0  0  0
   -0.4333    1.3458    0.0000 C   0  0  0  0  0  0  0  0  0  0  0  0
   -1.6000    1.9708    0.0000 C   0  0  0  0  0  0  0  0  0  0  0  0
   -0.4500    2.0000    0.0000 C   0  0  0  0  0  0  0  0  0  0  0  0
   -3.9958    1.2708    0.0000 C   0  0  0  0  0  0  0  0  0  0  0  0
  2  1  1  0  0  0  0
  3  1  1  0  0  0  0
  4  2  1  0  0  0  0
  5  2  1  0  0  0  0
  6  1  2  0  0  0  0
  7  3  1  0  0  0  0
  8  3  2  0  0  0  0
  9  4  2  0  0  0  0
 10  4  1  0  0  0  0
 11  5  1  0  0  0  0
 12 14  2  0  0  0  0
 13 24  1  0  0  0  0
 14  8  1  0  0  0  0
 15  7  2  0  0  0  0
 16 10  2  0  0  0  0
 17  9  1  0  0  0  0
 18 16  1  0  0  0  0
 19 13  1  0  0  0  0
 20 12  1  0  0  0  0
 21 11  2  0  0  0  0
 22 11  1  0  0  0  0
 23 21  1  0  0  0  0
 24 22  2  0  0  0  0
 25 18  1  0  0  0  0
 15 12  1  0  0  0  0
 13 23  2  0  0  0  0
 18 17  2  0  0  0  0
M  END
>  <ID> (5114344)
5114344

>  <Supplier> (5114344)
ChemBridge

>  <clogP> (5114344)
5.890000000000000e+000

>  <RB> (5114344)
4

>  <tPSA> (5114344)
2.031000000000000e+001

>  <Hacc> (5114344)
1

>  <Hdon> (5114344)
0

>  <LogSw> (5114344)
-6.690000000000000e+000

>  <Group> (5114344)
1

>  <Core> (5114344)
511

$$$$
5114341
  -ISIS-  03310818212D

 30 33  0  0  0  0  0  0  0  0999 V2000
   -1.5500   -0.0292    0.0000 N   0  0  3  0  0  0  0  0  0  0  0  0
   -1.5333   -0.6875    0.0000 C   0  0  0  0  0  0  0  0  0  0  0  0
   -2.1458    0.3000    0.0000 C   0  0  0  0  0  0  0  0  0  0  0  0
   -0.9958    0.3458    0.0000 C   0  0  0  0  0  0  0  0  0  0  0  0
    1.8000   -1.2292    0.0000 C   0  0  0  0  0  0  0  0  0  0  0  0
   -0.8833   -1.0667    0.0000 C   0  0  0  0  0  0  0  0  0  0  0  0
   -2.1000   -1.0375    0.0000 O   0  0  0  0  0  0  0  0  0  0  0  0
    1.2167   -0.9000    0.0000 C   0  0  0  0  0  0  0  0  0  0  0  0
    1.8000   -1.8875    0.0000 C   0  0  0  0  0  0  0  0  0  0  0  0
   -2.1625    0.9708    0.0000 C   0  0  0  0  0  0  0  0  0  0  0  0
   -2.7125   -0.0542    0.0000 C   0  0  0  0  0  0  0  0  0  0  0  0
   -0.1458   -0.7375    0.0000 O   0  0  0  0  0  0  0  0  0  0  0  0
    1.3042   -2.2042    0.0000 C   0  0  0  0  0  0  0  0  0  0  0  0
    0.6542   -1.2292    0.0000 C   0  0  0  0  0  0  0  0  0  0  0  0
   -1.0125    1.0000    0.0000 C   0  0  0  0  0  0  0  0  0  0  0  0
   -1.0333    2.3208    0.0000 C   0  0  0  0  0  0  0  0  0  0  0  0
    0.6542   -1.8875    0.0000 C   0  0  0  0  0  0  0  0  0  0  0  0
   -2.7500    1.2833    0.0000 C   0  0  0  0  0  0  0  0  0  0  0  0
   -3.2708    0.2708    0.0000 C   0  0  0  0  0  0  0  0  0  0  0  0
   -3.3125    0.9458    0.0000 C   0  0  0  0  0  0  0  0  0  0  0  0
   -1.0333    3.0000    0.0000 F   0  0  0  0  0  0  0  0  0  0  0  0
   -1.5833    1.3125    0.0000 C   0  0  0  0  0  0  0  0  0  0  0  0
   -0.4333    1.3458    0.0000 C   0  0  0  0  0  0  0  0  0  0  0  0
   -1.6000    1.9708    0.0000 C   0  0  0  0  0  0  0  0  0  0  0  0
   -0.4500    2.0000    0.0000 C   0  0  0  0  0  0  0  0  0  0  0  0
    2.3792   -0.8667    0.0000 C   0  0  0  0  0  0  0  0  0  0  0  0
    2.3792   -2.2500    0.0000 C   0  0  0  0  0  0  0  0  0  0  0  0
   -3.9958    1.2708    0.0000 C   0  0  0  0  0  0  0  0  0  0  0  0
    2.9792   -1.2042    0.0000 C   0  0  0  0  0  0  0  0  0  0  0  0
    2.9792   -1.9000    0.0000 C   0  0  0  0  0  0  0  0  0  0  0  0
  2  1  1  0  0  0  0
  3  1  1  0  0  0  0
  4  1  1  0  0  0  0
  5  8  1  0  0  0  0
  6  2  1  0  0  0  0
  7  2  2  0  0  0  0
  8 14  2  0  0  0  0
  9 13  1  0  0  0  0
 10  3  2  0  0  0  0
 11  3  1  0  0  0  0
 12  6  1  0  0  0  0
 13 17  2  0  0  0  0
 14 12  1  0  0  0  0
 15  4  1  0  0  0  0
 16 25  1  0  0  0  0
 17 14  1  0  0  0  0
 18 10  1  0  0  0  0
 19 11  2  0  0  0  0
 20 19  1  0  0  0  0
 21 16  1  0  0  0  0
 22 15  2  0  0  0  0
 23 15  1  0  0  0  0
 24 22  1  0  0  0  0
 25 23  2  0  0  0  0
 26  5  1  0  0  0  0
 27  9  1  0  0  0  0
 28 20  1  0  0  0  0
 29 26  2  0  0  0  0
 30 27  2  0  0  0  0
 24 16  2  0  0  0  0
 20 18  2  0  0  0  0
  9  5  2  0  0  0  0
 30 29  1  0  0  0  0
M  END
>  <ID> (5114341)
5114341

>  <Supplier> (5114341)
ChemBridge

>  <clogP> (5114341)
6.400000000000000e+000

>  <RB> (5114341)
6

>  <tPSA> (5114341)
2.954000000000000e+001

>  <Hacc> (5114341)
2

>  <Hdon> (5114341)
0

>  <LogSw> (5114341)
-7.578000000000000e+000

>  <Group> (5114341)
3

>  <Core> (5114341)
315

$$$$
5553422
  -ISIS-  03310818222D

 22 23  0  0  0  0  0  0  0  0999 V2000
   -0.0125    0.0625    0.0000 C   0  0  0  0  0  0  0  0  0  0  0  0
    2.7792   -1.5542    0.0000 C   0  0  0  0  0  0  0  0  0  0  0  0
   -1.4208    0.8708    0.0000 N   0  0  0  0  0  0  0  0  0  0  0  0
    3.7167   -1.5542    0.0000 C   0  0  0  0  0  0  0  0  0  0  0  0
   -2.8208    0.0625    0.0000 C   0  0  0  0  0  0  0  0  0  0  0  0
    2.3042   -0.7500    0.0000 C   0  0  0  0  0  0  0  0  0  0  0  0
   -0.4833    0.8708    0.0000 N   0  0  0  0  0  0  0  0  0  0  0  0
    1.3792   -0.7500    0.0000 O   0  0  0  0  0  0  0  0  0  0  0  0
   -0.4833   -0.7500    0.0000 O   0  0  0  0  0  0  0  0  0  0  0  0
   -3.2958   -0.7500    0.0000 C   0  0  0  0  0  0  0  0  0  0  0  0
   -1.8958    0.0625    0.0000 C   0  0  0  0  0  0  0  0  0  0  0  0
    0.9167    0.0625    0.0000 C   0  0  0  0  0  0  0  0  0  0  0  0
    2.7792    0.0625    0.0000 C   0  0  0  0  0  0  0  0  0  0  0  0
    4.1875   -0.7500    0.0000 C   0  0  0  0  0  0  0  0  0  0  0  0
    2.3042   -2.3667    0.0000 Cl  0  0  0  0  0  0  0  0  0  0  0  0
   -2.8208   -1.5542    0.0000 Br  0  0  0  0  0  0  0  0  0  0  0  0
    3.7167    0.0625    0.0000 C   0  0  0  0  0  0  0  0  0  0  0  0
    5.1167   -0.7500    0.0000 Cl  0  0  0  0  0  0  0  0  0  0  0  0
   -3.2958    0.8708    0.0000 C   0  0  0  0  0  0  0  0  0  0  0  0
   -4.2333   -0.7500    0.0000 C   0  0  0  0  0  0  0  0  0  0  0  0
   -4.2333    0.8708    0.0000 C   0  0  0  0  0  0  0  0  0  0  0  0
   -4.7083    0.0625    0.0000 C   0  0  0  0  0  0  0  0  0  0  0  0
  2  6  2  0  0  0  0
  3  7  1  0  0  0  0
  4  2  1  0  0  0  0
  5 11  1  0  0  0  0
  6  8  1  0  0  0  0
  7  1  1  0  0  0  0
  8 12  1  0  0  0  0
  9  1  2  0  0  0  0
 10  5  1  0  0  0  0
 11  3  2  0  0  0  0
 12  1  1  0  0  0  0
 13  6  1  0  0  0  0
 14 17  1  0  0  0  0
 15  2  1  0  0  0  0
 16 10  1  0  0  0  0
 17 13  2  0  0  0  0
 18 14  1  0  0  0  0
 19  5  2  0  0  0  0
 20 10  2  0  0  0  0
 21 19  1  0  0  0  0
 22 21  2  0  0  0  0
 14  4  2  0  0  0  0
 22 20  1  0  0  0  0
M  END
>  <ID> (5553422)
5553422

>  <Supplier> (5553422)
ChemBridge

>  <clogP> (5553422)
4.920000000000000e+000

>  <RB> (5553422)
5

>  <tPSA> (5553422)
5.069000000000000e+001

>  <Hacc> (5553422)
3

>  <Hdon> (5553422)
1

>  <LogSw> (5553422)
-6.333000000000000e+000

>  <Group> (5553422)
1

>  <Core> (5553422)
315

$$$$
6646330
  -ISIS-  03310818242D

 19 21  0  0  0  0  0  0  0  0999 V2000
   -2.1333    0.2833    0.0000 C   0  0  0  0  0  0  0  0  0  0  0  0
   -2.6125    0.8208    0.0000 N   0  0  0  0  0  0  0  0  0  0  0  0
   -2.4958   -0.3375    0.0000 S   0  0  0  0  0  0  0  0  0  0  0  0
   -1.4125    0.2833    0.0000 C   0  0  0  0  0  0  0  0  0  0  0  0
   -1.0500   -0.3375    0.0000 N   0  0  0  0  0  0  0  0  0  0  0  0
   -3.2500    0.5458    0.0000 C   0  0  0  0  0  0  0  0  0  0  0  0
   -3.1958   -0.1792    0.0000 C   0  0  0  0  0  0  0  0  0  0  0  0
   -0.3333   -0.3375    0.0000 C   0  0  0  0  0  0  0  0  0  0  0  0
   -1.0500    0.9208    0.0000 S   0  0  0  0  0  0  0  0  0  0  0  0
    0.0500   -0.9542    0.0000 C   0  0  0  0  0  0  0  0  0  0  0  0
   -0.2833   -1.5875    0.0000 Cl  0  0  0  0  0  0  0  0  0  0  0  0
   -3.9000    0.8458    0.0000 C   0  0  0  0  0  0  0  0  0  0  0  0
   -3.7833   -0.5875    0.0000 C   0  0  0  0  0  0  0  0  0  0  0  0
    0.0500    0.3000    0.0000 C   0  0  0  0  0  0  0  0  0  0  0  0
    0.7667   -0.9375    0.0000 C   0  0  0  0  0  0  0  0  0  0  0  0
   -4.4958    0.4458    0.0000 C   0  0  0  0  0  0  0  0  0  0  0  0
   -4.4333   -0.2792    0.0000 C   0  0  0  0  0  0  0  0  0  0  0  0
    0.7667    0.3000    0.0000 C   0  0  0  0  0  0  0  0  0  0  0  0
    1.1292   -0.3167    0.0000 C   0  0  0  0  0  0  0  0  0  0  0  0
  2  1  2  0  0  0  0
  3  1  1  0  0  0  0
  4  1  1  0  0  0  0
  5  4  1  0  0  0  0
  6  2  1  0  0  0  0
  7  3  1  0  0  0  0
  8  5  1  0  0  0  0
  9  4  2  0  0  0  0
 10  8  2  0  0  0  0
 11 10  1  0  0  0  0
 12  6  1  0  0  0  0
 13  7  1  0  0  0  0
 14  8  1  0  0  0  0
 15 10  1  0  0  0  0
 16 12  2  0  0  0  0
 17 13  2  0  0  0  0
 18 14  2  0  0  0  0
 19 18  1  0  0  0  0
  7  6  2  0  0  0  0
 17 16  1  0  0  0  0
 15 19  2  0  0  0  0
M  END
>  <ID> (6646330)
6646330

>  <Supplier> (6646330)
ChemBridge

>  <clogP> (6646330)
4.280000000000000e+000

>  <RB> (6646330)
2

>  <tPSA> (6646330)
2.492000000000000e+001

>  <Hacc> (6646330)
1

>  <Hdon> (6646330)
1

>  <LogSw> (6646330)
-5.078000000000000e+000

>  <Group> (6646330)
3

$$$$
9133495
  -ISIS-  03310818292D

 26 27  0  0  0  0  0  0  0  0999 V2000
    6.1750    3.5208    0.0000 C   0  0  0  0  0  0  0  0  0  0  0  0
    6.8542    3.2125    0.0000 C   0  0  0  0  0  0  0  0  0  0  0  0
    6.2542    4.2542    0.0000 S   0  0  0  0  0  0  0  0  0  0  0  0
    7.3625    3.7708    0.0000 C   0  0  0  0  0  0  0  0  0  0  0  0
    2.2792    3.5208    0.0000 N   0  0  0  0  0  0  0  0  0  0  0  0
    2.9250    3.1458    0.0000 C   0  0  0  0  0  0  0  0  0  0  0  0
    6.9875    4.4042    0.0000 C   0  0  0  0  0  0  0  0  0  0  0  0
    2.9250    2.3958    0.0000 N   0  0  0  0  0  0  0  0  0  0  0  0
    1.6292    3.1458    0.0000 C   0  0  0  0  0  0  0  0  0  0  0  0
    5.5250    3.1458    0.0000 N   0  0  0  0  0  0  0  0  0  0  0  0
    1.6292    2.3958    0.0000 C   0  0  0  0  0  0  0  0  0  0  0  0
    7.0167    2.4833    0.0000 C   0  0  0  0  0  0  0  0  0  0  0  0
    2.2792    2.0208    0.0000 C   0  0  0  0  0  0  0  0  0  0  0  0
    4.8750    3.5208    0.0000 C   0  0  0  0  0  0  0  0  0  0  0  0
    3.5750    3.5208    0.0000 S   0  0  0  0  0  0  0  0  0  0  0  0
    0.9792    3.5208    0.0000 O   0  0  0  0  0  0  0  0  0  0  0  0
    6.4542    1.9750    0.0000 O   0  0  0  0  0  0  0  0  0  0  0  0
    4.8750    4.2625    0.0000 O   0  0  0  0  0  0  0  0  0  0  0  0
    4.2250    3.1458    0.0000 C   0  0  0  0  0  0  0  0  0  0  0  0
    7.7292    2.2458    0.0000 O   0  0  0  0  0  0  0  0  0  0  0  0
    8.1042    3.6958    0.0000 C   0  0  0  0  0  0  0  0  0  0  0  0
    7.2917    5.0917    0.0000 C   0  0  0  0  0  0  0  0  0  0  0  0
    2.2792    1.2708    0.0000 C   0  0  0  0  0  0  0  0  0  0  0  0
    7.8792    1.5125    0.0000 C   0  0  0  0  0  0  0  0  0  0  0  0
    1.6292    0.8958    0.0000 C   0  0  0  0  0  0  0  0  0  0  0  0
    8.6000    1.2833    0.0000 C   0  0  0  0  0  0  0  0  0  0  0  0
  2  1  2  0  0  0  0
  3  1  1  0  0  0  0
  4  2  1  0  0  0  0
  5  6  1  0  0  0  0
  6 15  1  0  0  0  0
  7  3  1  0  0  0  0
  8  6  2  0  0  0  0
  9  5  1  0  0  0  0
 10  1  1  0  0  0  0
 11 13  2  0  0  0  0
 12  2  1  0  0  0  0
 13  8  1  0  0  0  0
 14 10  1  0  0  0  0
 15 19  1  0  0  0  0
 16  9  2  0  0  0  0
 17 12  2  0  0  0  0
 18 14  2  0  0  0  0
 19 14  1  0  0  0  0
 20 12  1  0  0  0  0
 21  4  1  0  0  0  0
 22  7  1  0  0  0  0
 23 13  1  0  0  0  0
 24 20  1  0  0  0  0
 25 23  1  0  0  0  0
 26 24  1  0  0  0  0
  7  4  2  0  0  0  0
 11  9  1  0  0  0  0
M  END
>  <ID> (9133495)
9133495

>  <Supplier> (9133495)
ChemBridge

>  <clogP> (9133495)
3.100000000000000e+000

>  <RB> (9133495)
5

>  <tPSA> (9133495)
1.011500000000000e+002

>  <Hacc> (9133495)
5

>  <Hdon> (9133495)
2

>  <LogSw> (9133495)
-4.731000000000003e+000

>  <Group> (9133495)
2

$$$$
9133496
  -ISIS-  03310818292D

 21 23  0  0  0  0  0  0  0  0999 V2000
    4.4500    1.6708    0.0000 N   0  0  0  0  0  0  0  0  0  0  0  0
    5.1292    1.9750    0.0000 N   0  0  3  0  0  0  0  0  0  0  0  0
    5.0542    2.7250    0.0000 C   0  0  0  0  0  0  0  0  0  0  0  0
    4.3167    2.8833    0.0000 C   0  0  0  0  0  0  0  0  0  0  0  0
    3.9417    2.2333    0.0000 C   0  0  0  0  0  0  0  0  0  0  0  0
    5.7792    1.6000    0.0000 C   0  0  0  0  0  0  0  0  0  0  0  0
    3.2000    2.1500    0.0000 C   0  0  0  0  0  0  0  0  0  0  0  0
    2.7542    2.7583    0.0000 C   0  0  0  0  0  0  0  0  0  0  0  0
    5.6125    3.2333    0.0000 O   0  0  0  0  0  0  0  0  0  0  0  0
    5.7792    0.8500    0.0000 C   0  0  0  0  0  0  0  0  0  0  0  0
    6.4292    1.9750    0.0000 C   0  0  0  0  0  0  0  0  0  0  0  0
    7.0792    0.8500    0.0000 C   0  0  0  0  0  0  0  0  0  0  0  0
    2.0042    2.6833    0.0000 C   0  0  0  0  0  0  0  0  0  0  0  0
    6.4292    0.4750    0.0000 C   0  0  0  0  0  0  0  0  0  0  0  0
    7.0792    1.6000    0.0000 C   0  0  0  0  0  0  0  0  0  0  0  0
    7.7292    0.4750    0.0000 F   0  0  0  0  0  0  0  0  0  0  0  0
    1.5750    3.2958    0.0000 O   0  0  0  0  0  0  0  0  0  0  0  0
    2.8917    1.4708    0.0000 C   0  0  0  0  0  0  0  0  0  0  0  0
    2.1500    1.3875    0.0000 C   0  0  0  0  0  0  0  0  0  0  0  0
    1.7042    1.9958    0.0000 C   0  0  0  0  0  0  0  0  0  0  0  0
    0.8292    3.2083    0.0000 C   0  0  0  0  0  0  0  0  0  0  0  0
  2  1  1  0  0  0  0
  3  2  1  0  0  0  0
  4  5  1  0  0  0  0
  5  1  2  0  0  0  0
  6  2  1  0  0  0  0
  7  5  1  0  0  0  0
  8  7  1  0  0  0  0
  9  3  1  0  0  0  0
 10  6  2  0  0  0  0
 11  6  1  0  0  0  0
 12 15  1  0  0  0  0
 13  8  2  0  0  0  0
 14 10  1  0  0  0  0
 15 11  2  0  0  0  0
 16 12  1  0  0  0  0
 17 13  1  0  0  0  0
 18  7  2  0  0  0  0
 19 18  1  0  0  0  0
 20 19  2  0  0  0  0
 21 17  1  0  0  0  0
  4  3  2  0  0  0  0
 12 14  2  0  0  0  0
 20 13  1  0  0  0  0
M  END
>  <ID> (9133496)
9133496

>  <Supplier> (9133496)
ChemBridge

>  <clogP> (9133496)
4.359000000000000e+000

>  <RB> (9133496)
2

>  <tPSA> (9133496)
4.728000000000000e+001

>  <Hacc> (9133496)
3

>  <Hdon> (9133496)
1

>  <LogSw> (9133496)
-4.996000000000000e+000

>  <Group> (9133496)
2

$$$$
7933378
  -ISIS-  03310818272D

 20 21  0  0  0  0  0  0  0  0999 V2000
    5.2292    2.9833    0.0000 C   0  0  3  0  0  0  0  0  0  0  0  0
    2.6042    2.3333    0.0000 C   0  0  0  0  0  0  0  0  0  0  0  0
    2.9792    1.6750    0.0000 N   0  0  0  0  0  0  0  0  0  0  0  0
    3.7292    1.6750    0.0000 C   0  0  0  0  0  0  0  0  0  0  0  0
    4.8542    2.3333    0.0000 C   0  0  0  0  0  0  0  0  0  0  0  0
    4.1042    2.3333    0.0000 C   0  0  0  0  0  0  0  0  0  0  0  0
    4.1042    1.0250    0.0000 C   0  0  0  0  0  0  0  0  0  0  0  0
    2.9792    2.9833    0.0000 O   0  0  0  0  0  0  0  0  0  0  0  0
    5.2292    1.6750    0.0000 C   0  0  0  0  0  0  0  0  0  0  0  0
    1.8542    2.3333    0.0000 C   0  0  3  0  0  0  0  0  0  0  0  0
    4.8542    1.0250    0.0000 C   0  0  0  0  0  0  0  0  0  0  0  0
    5.9500    2.7833    0.0000 F   0  0  0  0  0  0  0  0  0  0  0  0
    5.4792    3.6833    0.0000 F   0  0  0  0  0  0  0  0  0  0  0  0
    4.5417    3.2958    0.0000 F   0  0  0  0  0  0  0  0  0  0  0  0
    3.7292    0.3750    0.0000 F   0  0  0  0  0  0  0  0  0  0  0  0
    1.4792    2.9833    0.0000 C   0  0  0  0  0  0  0  0  0  0  0  0
    1.4792    1.6750    0.0000 C   0  0  0  0  0  0  0  0  0  0  0  0
    0.7292    1.6750    0.0000 C   0  0  0  0  0  0  0  0  0  0  0  0
    0.7292    2.9833    0.0000 C   0  0  0  0  0  0  0  0  0  0  0  0
    0.3542    2.3333    0.0000 C   0  0  0  0  0  0  0  0  0  0  0  0
  2  3  1  0  0  0  0
  3  4  1  0  0  0  0
  4  6  1  0  0  0  0
  5  1  1  0  0  0  0
  6  5  2  0  0  0  0
  7 11  1  0  0  0  0
  8  2  2  0  0  0  0
  9  5  1  0  0  0  0
 10  2  1  0  0  0  0
 11  9  2  0  0  0  0
 12  1  1  0  0  0  0
 13  1  1  0  0  0  0
 14  1  1  0  0  0  0
 15  7  1  0  0  0  0
 16 10  1  0  0  0  0
 17 10  1  0  0  0  0
 18 17  1  0  0  0  0
 19 16  1  0  0  0  0
 20 18  1  0  0  0  0
  7  4  2  0  0  0  0
 19 20  1  0  0  0  0
M  END
>  <ID> (7933378)
7933378

>  <Supplier> (7933378)
ChemBridge

>  <clogP> (7933378)
4.159000000000000e+000

>  <RB> (7933378)
2

>  <tPSA> (7933378)
2.910000000000000e+001

>  <Hacc> (7933378)
1

>  <Hdon> (7933378)
1

>  <LogSw> (7933378)
-4.861999999999998e+000

>  <Group> (7933378)
1

$$$$
6056515
  -ISIS-  03310818232D

 16 17  0  0  0  0  0  0  0  0999 V2000
    4.2875   -0.9000    0.0000 N   0  0  3  0  0  0  0  0  0  0  0  0
    3.7292   -1.5250    0.0000 C   0  0  0  0  0  0  0  0  0  0  0  0
    3.0667   -0.3667    0.0000 C   0  0  0  0  0  0  0  0  0  0  0  0
    3.8750   -0.1917    0.0000 C   0  0  0  0  0  0  0  0  0  0  0  0
    2.9750   -1.1917    0.0000 S   0  0  0  0  0  0  0  0  0  0  0  0
    2.4417    0.1833    0.0000 C   0  0  0  0  0  0  0  0  0  0  0  0
    1.6667   -0.0667    0.0000 C   0  0  0  0  0  0  0  0  0  0  0  0
    0.3250   -0.0667    0.0000 C   0  0  0  0  0  0  0  0  0  0  0  0
    1.0000    0.4125    0.0000 O   0  0  0  0  0  0  0  0  0  0  0  0
    3.9042   -2.3375    0.0000 N   0  0  0  0  0  0  0  0  0  0  0  0
    0.5792   -0.8625    0.0000 C   0  0  0  0  0  0  0  0  0  0  0  0
    1.4125   -0.8625    0.0000 C   0  0  0  0  0  0  0  0  0  0  0  0
    4.2042    0.5625    0.0000 O   0  0  0  0  0  0  0  0  0  0  0  0
    5.1042   -0.9792    0.0000 C   0  0  0  0  0  0  0  0  0  0  0  0
   -0.4583    0.1833    0.0000 I   0  0  0  0  0  0  0  0  0  0  0  0
    3.2875   -2.8917    0.0000 C   0  0  0  0  0  0  0  0  0  0  0  0
  2  1  1  0  0  0  0
  3  4  1  0  0  0  0
  4  1  1  0  0  0  0
  5  2  1  0  0  0  0
  6  3  2  0  0  0  0
  7  6  1  0  0  0  0
  8  9  1  0  0  0  0
  9  7  1  0  0  0  0
 10  2  2  0  0  0  0
 11 12  1  0  0  0  0
 12  7  2  0  0  0  0
 13  4  2  0  0  0  0
 14  1  1  0  0  0  0
 15  8  1  0  0  0  0
 16 10  1  0  0  0  0
  5  3  1  0  0  0  0
 11  8  2  0  0  0  0
M  END
>  <ID> (6056515)
6056515

>  <Supplier> (6056515)
ChemBridge

>  <clogP> (6056515)
2.800000000000000e+000

>  <RB> (6056515)
1

>  <tPSA> (6056515)
4.581000000000000e+001

>  <Hacc> (6056515)
3

>  <Hdon> (6056515)
0

>  <LogSw> (6056515)
-4.130000000000000e+000

>  <Group> (6056515)
3

>  <Core> (6056515)
241

$$$$
7933371
  -ISIS-  03310818272D

 35 39  0  0  0  0  0  0  0  0999 V2000
   11.2125   -0.0917    0.0000 C   0  0  0  0  0  0  0  0  0  0  0  0
    6.0167    2.1583    0.0000 N   0  3  0  0  0  0  0  0  0  0  0  0
    6.6625    1.7833    0.0000 C   0  0  0  0  0  0  0  0  0  0  0  0
    6.6625    1.0333    0.0000 C   0  0  0  0  0  0  0  0  0  0  0  0
   10.5625   -0.4667    0.0000 C   0  0  0  0  0  0  0  0  0  0  0  0
   11.8917   -0.4000    0.0000 O   0  0  0  0  0  0  0  0  0  0  0  0
   11.2875    0.6500    0.0000 C   0  0  0  0  0  0  0  0  0  0  0  0
    9.9125   -0.0917    0.0000 N   0  0  3  0  0  0  0  0  0  0  0  0
    8.6125    0.6583    0.0000 N   0  0  3  0  0  0  0  0  0  0  0  0
    6.0167    0.6583    0.0000 N   0  0  0  0  0  0  0  0  0  0  0  0
    7.3125    0.6583    0.0000 C   0  0  0  0  0  0  0  0  0  0  0  0
    7.9625    1.0333    0.0000 C   0  0  0  0  0  0  0  0  0  0  0  0
   12.4000    0.1583    0.0000 C   0  0  0  0  0  0  0  0  0  0  0  0
   12.0250    0.8083    0.0000 C   0  0  0  0  0  0  0  0  0  0  0  0
    7.3125    2.1583    0.0000 C   0  0  0  0  0  0  0  0  0  0  0  0
    6.0167    2.9083    0.0000 O   0  5  0  0  0  0  0  0  0  0  0  0
    5.5542    1.8958    0.0000 O   0  0  0  0  0  0  0  0  0  0  0  0
    6.1417   -0.0792    0.0000 C   0  0  3  0  0  0  0  0  0  0  0  0
    9.2625   -0.4667    0.0000 C   0  0  0  0  0  0  0  0  0  0  0  0
    9.9125    0.6583    0.0000 C   0  0  0  0  0  0  0  0  0  0  0  0
   10.5625   -1.2167    0.0000 O   0  0  0  0  0  0  0  0  0  0  0  0
    9.2625    1.0333    0.0000 C   0  0  0  0  0  0  0  0  0  0  0  0
    8.6125   -0.0917    0.0000 C   0  0  0  0  0  0  0  0  0  0  0  0
    7.9625    1.7833    0.0000 C   0  0  0  0  0  0  0  0  0  0  0  0
    5.5667   -0.5667    0.0000 C   0  0  0  0  0  0  0  0  0  0  0  0
   13.1500    0.1583    0.0000 C   0  0  0  0  0  0  0  0  0  0  0  0
   12.4000    1.4583    0.0000 C   0  0  0  0  0  0  0  0  0  0  0  0
    6.8500   -0.3417    0.0000 C   0  0  0  0  0  0  0  0  0  0  0  0
    5.7000   -1.3042    0.0000 C   0  0  0  0  0  0  0  0  0  0  0  0
    4.8667   -0.3042    0.0000 C   0  0  0  0  0  0  0  0  0  0  0  0
   13.5250    0.8083    0.0000 C   0  0  0  0  0  0  0  0  0  0  0  0
   13.1500    1.4583    0.0000 C   0  0  0  0  0  0  0  0  0  0  0  0
    4.2917   -0.7917    0.0000 C   0  0  0  0  0  0  0  0  0  0  0  0
    5.1250   -1.7875    0.0000 C   0  0  0  0  0  0  0  0  0  0  0  0
    4.4167   -1.5292    0.0000 C   0  0  0  0  0  0  0  0  0  0  0  0
  2  3  1  0  0  0  0
  3 15  1  0  0  0  0
  4 11  1  0  0  0  0
  5  1  1  0  0  0  0
  6  1  1  0  0  0  0
  7  1  2  0  0  0  0
  8  5  1  0  0  0  0
  9 22  1  0  0  0  0
 10  4  1  0  0  0  0
 11 12  2  0  0  0  0
 12  9  1  0  0  0  0
 13  6  1  0  0  0  0
 14  7  1  0  0  0  0
 15 24  2  0  0  0  0
 16  2  1  0  0  0  0
 17  2  2  0  0  0  0
 18 10  1  0  0  0  0
 19  8  1  0  0  0  0
 20  8  1  0  0  0  0
 21  5  2  0  0  0  0
 22 20  1  0  0  0  0
 23 19  1  0  0  0  0
 24 12  1  0  0  0  0
 25 18  1  0  0  0  0
 26 13  1  0  0  0  0
 27 14  1  0  0  0  0
 28 18  1  0  0  0  0
 29 25  2  0  0  0  0
 30 25  1  0  0  0  0
 31 26  2  0  0  0  0
 32 27  2  0  0  0  0
 33 30  2  0  0  0  0
 34 29  1  0  0  0  0
 35 33  1  0  0  0  0
 14 13  2  0  0  0  0
 31 32  1  0  0  0  0
 23  9  1  0  0  0  0
  4  3  2  0  0  0  0
 34 35  2  0  0  0  0
M  CHG  2   2   1  16  -1
M  END
>  <ID> (7933371)
7933371

>  <Supplier> (7933371)
ChemBridge

>  <clogP> (7933371)
4.413000000000000e+000

>  <RB> (7933371)
5

>  <tPSA> (7933371)
9.186000000000000e+001

>  <Hacc> (7933371)
4

>  <Hdon> (7933371)
1

>  <LogSw> (7933371)
-6.398000000000000e+000

>  <Group> (7933371)
1

>  <Core> (7933371)
158

$$$$
9133498
  -ISIS-  03310818292D

 17 18  0  0  0  0  0  0  0  0999 V2000
    2.5917    1.9333    0.0000 C   0  0  0  0  0  0  0  0  0  0  0  0
    1.9417    1.5583    0.0000 N   0  0  3  0  0  0  0  0  0  0  0  0
    5.1917    0.4333    0.0000 C   0  0  0  0  0  0  0  0  0  0  0  0
    3.2417    1.5583    0.0000 C   0  0  0  0  0  0  0  0  0  0  0  0
    4.5417    0.8083    0.0000 C   0  0  0  0  0  0  0  0  0  0  0  0
    2.5917    2.6833    0.0000 O   0  0  0  0  0  0  0  0  0  0  0  0
    5.1917   -0.3167    0.0000 O   0  0  0  0  0  0  0  0  0  0  0  0
    3.8917    1.9333    0.0000 C   0  0  0  0  0  0  0  0  0  0  0  0
    3.2417    0.8083    0.0000 C   0  0  0  0  0  0  0  0  0  0  0  0
    3.8917    0.4333    0.0000 C   0  0  0  0  0  0  0  0  0  0  0  0
    4.5417    1.5583    0.0000 C   0  0  0  0  0  0  0  0  0  0  0  0
    5.8417    0.8083    0.0000 O   0  0  0  0  0  0  0  0  0  0  0  0
    1.2625    1.8625    0.0000 C   0  0  0  0  0  0  0  0  0  0  0  0
    1.8667    0.8125    0.0000 C   0  0  0  0  0  0  0  0  0  0  0  0
    6.4917    0.4333    0.0000 C   0  0  0  0  0  0  0  0  0  0  0  0
    1.1292    0.6583    0.0000 C   0  0  0  0  0  0  0  0  0  0  0  0
    0.7542    1.3083    0.0000 C   0  0  0  0  0  0  0  0  0  0  0  0
  2  1  1  0  0  0  0
  3  5  1  0  0  0  0
  4  1  1  0  0  0  0
  5 10  2  0  0  0  0
  6  1  2  0  0  0  0
  7  3  2  0  0  0  0
  8  4  1  0  0  0  0
  9  4  2  0  0  0  0
 10  9  1  0  0  0  0
 11  8  2  0  0  0  0
 12  3  1  0  0  0  0
 13  2  1  0  0  0  0
 14  2  1  0  0  0  0
 15 12  1  0  0  0  0
 16 14  1  0  0  0  0
 17 13  1  0  0  0  0
 11  5  1  0  0  0  0
 16 17  1  0  0  0  0
M  END
>  <ID> (9133498)
9133498

>  <Supplier> (9133498)
ChemBridge

>  <clogP> (9133498)
1.348000000000000e+000

>  <RB> (9133498)
2

>  <tPSA> (9133498)
4.661000000000000e+001

>  <Hacc> (9133498)
3

>  <Hdon> (9133498)
0

>  <LogSw> (9133498)
-2.053000000000000e+000

>  <Group> (9133498)
2

$$$$
9133499
  -ISIS-  03310818292D

 23 24  0  0  0  0  0  0  0  0999 V2000
    1.3167    1.9750    0.0000 S   0  0  3  0  0  0  0  0  0  0  0  0
    5.8667    0.8500    0.0000 N   0  0  3  0  0  0  0  0  0  0  0  0
    5.2167    0.4750    0.0000 C   0  0  0  0  0  0  0  0  0  0  0  0
    1.9667    1.6000    0.0000 C   0  0  0  0  0  0  0  0  0  0  0  0
    1.5125    2.7083    0.0000 N   0  0  3  0  0  0  0  0  0  0  0  0
    0.6167    2.2333    0.0000 O   0  0  0  0  0  0  0  0  0  0  0  0
    1.0042    1.2958    0.0000 O   0  0  0  0  0  0  0  0  0  0  0  0
    5.2167   -0.2750    0.0000 O   0  0  0  0  0  0  0  0  0  0  0  0
    4.5667    0.8500    0.0000 C   0  0  0  0  0  0  0  0  0  0  0  0
    1.9667    0.8500    0.0000 C   0  0  0  0  0  0  0  0  0  0  0  0
    2.6167    1.9750    0.0000 C   0  0  0  0  0  0  0  0  0  0  0  0
    3.2667    0.8500    0.0000 C   0  0  0  0  0  0  0  0  0  0  0  0
    3.9167    0.4750    0.0000 C   0  0  0  0  0  0  0  0  0  0  0  0
    2.6167    0.4750    0.0000 C   0  0  0  0  0  0  0  0  0  0  0  0
    3.2667    1.6000    0.0000 C   0  0  0  0  0  0  0  0  0  0  0  0
    6.4875    0.4250    0.0000 C   0  0  0  0  0  0  0  0  0  0  0  0
    5.8125    1.5958    0.0000 C   0  0  0  0  0  0  0  0  0  0  0  0
    0.9792    3.2333    0.0000 C   0  0  0  0  0  0  0  0  0  0  0  0
    2.2375    2.8958    0.0000 C   0  0  0  0  0  0  0  0  0  0  0  0
    6.3625    2.1083    0.0000 C   0  0  0  0  0  0  0  0  0  0  0  0
    7.2042    0.6500    0.0000 C   0  0  0  0  0  0  0  0  0  0  0  0
    7.4792    1.3458    0.0000 C   0  0  0  0  0  0  0  0  0  0  0  0
    7.1042    1.9958    0.0000 C   0  0  0  0  0  0  0  0  0  0  0  0
  2  3  1  0  0  0  0
  3  9  1  0  0  0  0
  4  1  1  0  0  0  0
  5  1  1  0  0  0  0
  6  1  2  0  0  0  0
  7  1  2  0  0  0  0
  8  3  2  0  0  0  0
  9 13  1  0  0  0  0
 10  4  2  0  0  0  0
 11  4  1  0  0  0  0
 12 15  1  0  0  0  0
 13 12  1  0  0  0  0
 14 10  1  0  0  0  0
 15 11  2  0  0  0  0
 16  2  1  0  0  0  0
 17  2  1  0  0  0  0
 18  5  1  0  0  0  0
 19  5  1  0  0  0  0
 20 17  1  0  0  0  0
 21 16  1  0  0  0  0
 22 21  1  0  0  0  0
 23 20  1  0  0  0  0
 14 12  2  0  0  0  0
 22 23  1  0  0  0  0
M  END
>  <ID> (9133499)
9133499

>  <Supplier> (9133499)
ChemBridge

>  <clogP> (9133499)
1.832000000000000e+000

>  <RB> (9133499)
4

>  <tPSA> (9133499)
5.769000000000000e+001

>  <Hacc> (9133499)
4

>  <Hdon> (9133499)
0

>  <LogSw> (9133499)
-3.233000000000000e+000

>  <Group> (9133499)
2

>  <Core> (9133499)
484

$$$$
7933375
  -ISIS-  03310818272D

 27 31  0  0  0  0  0  0  0  0999 V2000
    1.6000    1.2250    0.0000 C   0  0  0  0  0  0  0  0  0  0  0  0
    1.9750    1.8750    0.0000 C   0  0  0  0  0  0  0  0  0  0  0  0
    2.7042    1.7208    0.0000 C   0  0  0  0  0  0  0  0  0  0  0  0
    2.7875    0.9750    0.0000 C   0  0  0  0  0  0  0  0  0  0  0  0
    3.4667    0.6708    0.0000 N   0  0  0  0  0  0  0  0  0  0  0  0
    2.1000    0.6708    0.0000 S   0  0  0  0  0  0  0  0  0  0  0  0
    4.0792    1.1083    0.0000 C   0  0  0  0  0  0  0  0  0  0  0  0
    4.0000    1.8583    0.0000 C   0  0  0  0  0  0  0  0  0  0  0  0
    3.3167    2.1625    0.0000 C   0  0  0  0  0  0  0  0  0  0  0  0
    0.8500    1.2250    0.0000 C   0  0  0  0  0  0  0  0  0  0  0  0
    1.6000    2.5250    0.0000 N   0  0  0  0  0  0  0  0  0  0  0  0
    4.7625    0.8083    0.0000 N   0  0  3  0  0  0  0  0  0  0  0  0
    0.4750    1.8750    0.0000 N   0  0  0  0  0  0  0  0  0  0  0  0
    4.6042    2.2958    0.0000 C   0  0  0  0  0  0  0  0  0  0  0  0
    0.8500    2.5250    0.0000 C   0  0  0  0  0  0  0  0  0  0  0  0
    4.5292    3.0458    0.0000 O   0  0  0  0  0  0  0  0  0  0  0  0
    3.2375    2.9083    0.0000 C   0  0  0  0  0  0  0  0  0  0  0  0
    3.8417    3.3458    0.0000 C   0  0  3  0  0  0  0  0  0  0  0  0
    0.4750    0.5750    0.0000 O   0  0  0  0  0  0  0  0  0  0  0  0
    6.1292    0.1958    0.0000 O   0  0  0  0  0  0  0  0  0  0  0  0
    5.3667    1.2458    0.0000 C   0  0  0  0  0  0  0  0  0  0  0  0
    4.8417    0.0583    0.0000 C   0  0  0  0  0  0  0  0  0  0  0  0
    4.2625    3.9708    0.0000 C   0  0  0  0  0  0  0  0  0  0  0  0
    3.3042    3.8708    0.0000 C   0  0  0  0  0  0  0  0  0  0  0  0
    5.5292   -0.2417    0.0000 C   0  0  0  0  0  0  0  0  0  0  0  0
    6.0542    0.9458    0.0000 C   0  0  0  0  0  0  0  0  0  0  0  0
    3.9292    4.6375    0.0000 C   0  0  0  0  0  0  0  0  0  0  0  0
  2  1  2  0  0  0  0
  3  2  1  0  0  0  0
  4  6  1  0  0  0  0
  5  4  1  0  0  0  0
  6  1  1  0  0  0  0
  7  5  2  0  0  0  0
  8  9  2  0  0  0  0
  9  3  1  0  0  0  0
 10  1  1  0  0  0  0
 11  2  1  0  0  0  0
 12  7  1  0  0  0  0
 13 10  1  0  0  0  0
 14  8  1  0  0  0  0
 15 13  1  0  0  0  0
 16 18  1  0  0  0  0
 17  9  1  0  0  0  0
 18 17  1  0  0  0  0
 19 10  2  0  0  0  0
 20 25  1  0  0  0  0
 21 12  1  0  0  0  0
 22 12  1  0  0  0  0
 23 18  1  0  0  0  0
 24 18  1  0  0  0  0
 25 22  1  0  0  0  0
 26 21  1  0  0  0  0
 27 23  1  0  0  0  0
  4  3  2  0  0  0  0
 11 15  2  0  0  0  0
  7  8  1  0  0  0  0
 14 16  1  0  0  0  0
 20 26  1  0  0  0  0
M  END
>  <ID> (7933375)
7933375

>  <Supplier> (7933375)
ChemBridge

>  <clogP> (7933375)
1.638000000000000e+000

>  <RB> (7933375)
1

>  <tPSA> (7933375)
8.034000000000000e+001

>  <Hacc> (7933375)
5

>  <Hdon> (7933375)
1

>  <LogSw> (7933375)
-3.416000000000000e+000

>  <Group> (7933375)
2

$$$$
7933374
  -ISIS-  03310818272D

 27 28  0  0  0  0  0  0  0  0999 V2000
    6.5167    3.1833    0.0000 S   0  0  3  0  0  0  0  0  0  0  0  0
    6.1417    2.5333    0.0000 N   0  0  3  0  0  0  0  0  0  0  0  0
    5.3917    2.5333    0.0000 C   0  0  0  0  0  0  0  0  0  0  0  0
    5.0167    1.8833    0.0000 C   0  0  0  0  0  0  0  0  0  0  0  0
    2.7667    1.8833    0.0000 N   0  0  3  0  0  0  0  0  0  0  0  0
    4.2667    1.8833    0.0000 N   0  0  3  0  0  0  0  0  0  0  0  0
    2.0167    1.8833    0.0000 C   0  0  0  0  0  0  0  0  0  0  0  0
    6.5167    1.8833    0.0000 C   0  0  0  0  0  0  0  0  0  0  0  0
    6.1417    1.2333    0.0000 C   0  0  0  0  0  0  0  0  0  0  0  0
    5.9875    3.7125    0.0000 O   0  0  0  0  0  0  0  0  0  0  0  0
    7.1292    2.7583    0.0000 O   0  0  0  0  0  0  0  0  0  0  0  0
    6.5167    0.5833    0.0000 C   0  0  0  0  0  0  0  0  0  0  0  0
    3.1417    1.2333    0.0000 C   0  0  0  0  0  0  0  0  0  0  0  0
    3.1417    2.5333    0.0000 C   0  0  0  0  0  0  0  0  0  0  0  0
    3.8917    1.2333    0.0000 C   0  0  0  0  0  0  0  0  0  0  0  0
    3.8917    2.5333    0.0000 C   0  0  0  0  0  0  0  0  0  0  0  0
    7.2667    0.5833    0.0000 C   0  0  0  0  0  0  0  0  0  0  0  0
    1.6417    1.2333    0.0000 O   0  0  0  0  0  0  0  0  0  0  0  0
    5.3917    1.2333    0.0000 O   0  0  0  0  0  0  0  0  0  0  0  0
    7.2667    1.8833    0.0000 C   0  0  0  0  0  0  0  0  0  0  0  0
    7.6417    1.2333    0.0000 C   0  0  0  0  0  0  0  0  0  0  0  0
    7.0000    3.7583    0.0000 C   0  0  0  0  0  0  0  0  0  0  0  0
    1.6417    2.5333    0.0000 O   0  0  0  0  0  0  0  0  0  0  0  0
    7.6417   -0.0667    0.0000 Br  0  0  0  0  0  0  0  0  0  0  0  0
    6.1417   -0.0667    0.0000 C   0  0  0  0  0  0  0  0  0  0  0  0
    0.8917    2.5333    0.0000 C   0  0  0  0  0  0  0  0  0  0  0  0
    0.5167    3.1833    0.0000 C   0  0  0  0  0  0  0  0  0  0  0  0
  2  1  1  0  0  0  0
  3  2  1  0  0  0  0
  4  3  1  0  0  0  0
  5 14  1  0  0  0  0
  6  4  1  0  0  0  0
  7  5  1  0  0  0  0
  8  2  1  0  0  0  0
  9  8  2  0  0  0  0
 10  1  2  0  0  0  0
 11  1  2  0  0  0  0
 12  9  1  0  0  0  0
 13 15  1  0  0  0  0
 14 16  1  0  0  0  0
 15  6  1  0  0  0  0
 16  6  1  0  0  0  0
 17 21  1  0  0  0  0
 18  7  2  0  0  0  0
 19  4  2  0  0  0  0
 20  8  1  0  0  0  0
 21 20  2  0  0  0  0
 22  1  1  0  0  0  0
 23  7  1  0  0  0  0
 24 17  1  0  0  0  0
 25 12  1  0  0  0  0
 26 23  1  0  0  0  0
 27 26  1  0  0  0  0
 12 17  2  0  0  0  0
 13  5  1  0  0  0  0
M  END
>  <ID> (7933374)
7933374

>  <Supplier> (7933374)
ChemBridge

>  <clogP> (7933374)
3.702000000000000e+000

>  <RB> (7933374)
3

>  <tPSA> (7933374)
8.723000000000000e+001

>  <Hacc> (7933374)
5

>  <Hdon> (7933374)
0

>  <LogSw> (7933374)
-5.732000000000000e+000

>  <Group> (7933374)
1

>  <Core> (7933374)
084

$$$$
7917843
  -ISIS-  03310818272D

 32 35  0  0  0  0  0  0  0  0999 V2000
    6.9000    2.0958    0.0000 C   0  0  0  0  0  0  0  0  0  0  0  0
    7.3667    2.6833    0.0000 N   0  0  0  0  0  0  0  0  0  0  0  0
    7.0917    1.3708    0.0000 S   0  0  3  0  0  0  0  0  0  0  0  0
    6.2000    2.3625    0.0000 C   0  0  0  0  0  0  0  0  0  0  0  0
    6.9625    3.3083    0.0000 C   0  0  0  0  0  0  0  0  0  0  0  0
    6.2375    3.1125    0.0000 O   0  0  0  0  0  0  0  0  0  0  0  0
    7.2292    4.0042    0.0000 C   0  0  0  0  0  0  0  0  0  0  0  0
    7.9542    4.1917    0.0000 S   0  0  0  0  0  0  0  0  0  0  0  0
    6.3542    1.2458    0.0000 O   0  0  0  0  0  0  0  0  0  0  0  0
    7.1542    0.6250    0.0000 O   0  0  0  0  0  0  0  0  0  0  0  0
    7.8417    1.3708    0.0000 C   0  0  0  0  0  0  0  0  0  0  0  0
    2.9000    3.3208    0.0000 C   0  0  0  0  0  0  0  0  0  0  0  0
    5.5667    1.9583    0.0000 N   0  0  0  0  0  0  0  0  0  0  0  0
    6.8250    4.6292    0.0000 C   0  0  0  0  0  0  0  0  0  0  0  0
    2.2667    2.9083    0.0000 C   0  0  0  0  0  0  0  0  0  0  0  0
    7.9917    4.9417    0.0000 C   0  0  0  0  0  0  0  0  0  0  0  0
    3.5667    2.9833    0.0000 C   0  0  0  0  0  0  0  0  0  0  0  0
    7.2917    5.2167    0.0000 C   0  0  0  0  0  0  0  0  0  0  0  0
    2.3042    2.1583    0.0000 C   0  0  0  0  0  0  0  0  0  0  0  0
    3.6042    2.2333    0.0000 C   0  0  0  0  0  0  0  0  0  0  0  0
    2.9750    1.8208    0.0000 C   0  0  0  0  0  0  0  0  0  0  0  0
    2.8542    4.0625    0.0000 O   0  0  0  0  0  0  0  0  0  0  0  0
    4.9042    2.2958    0.0000 C   0  0  0  0  0  0  0  0  0  0  0  0
    1.6000    3.2500    0.0000 O   0  0  0  0  0  0  0  0  0  0  0  0
    8.2167    0.7208    0.0000 C   0  0  0  0  0  0  0  0  0  0  0  0
    8.2167    2.0208    0.0000 C   0  0  0  0  0  0  0  0  0  0  0  0
    4.2750    1.8958    0.0000 C   0  0  0  0  0  0  0  0  0  0  0  0
    3.4875    4.4667    0.0000 C   0  0  0  0  0  0  0  0  0  0  0  0
    0.9667    2.8458    0.0000 C   0  0  0  0  0  0  0  0  0  0  0  0
    8.9667    0.7208    0.0000 C   0  0  0  0  0  0  0  0  0  0  0  0
    8.9667    2.0208    0.0000 C   0  0  0  0  0  0  0  0  0  0  0  0
    9.3417    1.3708    0.0000 C   0  0  0  0  0  0  0  0  0  0  0  0
  2  1  1  0  0  0  0
  3  1  1  0  0  0  0
  4  1  2  0  0  0  0
  5  2  2  0  0  0  0
  6  4  1  0  0  0  0
  7  5  1  0  0  0  0
  8  7  1  0  0  0  0
  9  3  2  0  0  0  0
 10  3  2  0  0  0  0
 11  3  1  0  0  0  0
 12 17  1  0  0  0  0
 13  4  1  0  0  0  0
 14  7  2  0  0  0  0
 15 19  1  0  0  0  0
 16  8  1  0  0  0  0
 17 20  2  0  0  0  0
 18 14  1  0  0  0  0
 19 21  2  0  0  0  0
 20 27  1  0  0  0  0
 21 20  1  0  0  0  0
 22 12  1  0  0  0  0
 23 13  1  0  0  0  0
 24 15  1  0  0  0  0
 25 11  2  0  0  0  0
 26 11  1  0  0  0  0
 27 23  1  0  0  0  0
 28 22  1  0  0  0  0
 29 24  1  0  0  0  0
 30 25  1  0  0  0  0
 31 26  2  0  0  0  0
 32 31  1  0  0  0  0
  5  6  1  0  0  0  0
 32 30  2  0  0  0  0
 18 16  2  0  0  0  0
 12 15  2  0  0  0  0
M  END
>  <ID> (7917843)
7917843

>  <Supplier> (7917843)
ChemBridge

>  <clogP> (7917843)
5.870000000000000e+000

>  <RB> (7917843)
7

>  <tPSA> (7917843)
9.066000000000004e+001

>  <Hacc> (7917843)
6

>  <Hdon> (7917843)
1

>  <LogSw> (7917843)
-7.643000000000000e+000

>  <Group> (7917843)
1

>  <Core> (7917843)
260

$$$$
6461862
  -ISIS-  03310818242D

 25 26  0  0  0  0  0  0  0  0999 V2000
    3.0292    1.4833    0.0000 C   0  0  0  0  0  0  0  0  0  0  0  0
    2.1792    1.2000    0.0000 C   0  0  0  0  0  0  0  0  0  0  0  0
    3.7042    0.8958    0.0000 C   0  0  0  0  0  0  0  0  0  0  0  0
   -3.0833    0.8208    0.0000 C   0  0  0  0  0  0  0  0  0  0  0  0
    3.9500   -0.3542    0.0000 C   0  0  0  0  0  0  0  0  0  0  0  0
   -3.0833    1.4958    0.0000 C   0  0  0  0  0  0  0  0  0  0  0  0
    1.9875    0.3333    0.0000 C   0  0  0  0  0  0  0  0  0  0  0  0
    3.9292   -1.1292    0.0000 C   0  0  0  0  0  0  0  0  0  0  0  0
    3.5042    0.0208    0.0000 C   0  0  0  0  0  0  0  0  0  0  0  0
   -2.5458    0.5708    0.0000 I   0  0  0  0  0  0  0  0  0  0  0  0
    2.6542   -0.2542    0.0000 C   0  0  0  0  0  0  0  0  0  0  0  0
    3.1042    2.0458    0.0000 O   0  0  0  0  0  0  0  0  0  0  0  0
    1.8292    1.5500    0.0000 O   0  0  0  0  0  0  0  0  0  0  0  0
   -2.3625    1.8708    0.0000 O   0  0  0  0  0  0  0  0  0  0  0  0
   -0.2125    1.3708    0.0000 O   0  0  0  0  0  0  0  0  0  0  0  0
    4.4292   -1.6167    0.0000 C   0  0  0  0  0  0  0  0  0  0  0  0
   -3.6625    0.4833    0.0000 C   0  0  0  0  0  0  0  0  0  0  0  0
   -3.6625    1.8333    0.0000 C   0  0  0  0  0  0  0  0  0  0  0  0
    1.1042    1.3500    0.0000 C   0  0  0  0  0  0  0  0  0  0  0  0
   -1.6625    1.4458    0.0000 C   0  0  0  0  0  0  0  0  0  0  0  0
   -0.8625    1.8958    0.0000 C   0  0  0  0  0  0  0  0  0  0  0  0
    0.5500    1.8958    0.0000 C   0  0  0  0  0  0  0  0  0  0  0  0
    3.6292    2.1958    0.0000 C   0  0  0  0  0  0  0  0  0  0  0  0
   -4.2333    1.4958    0.0000 C   0  0  0  0  0  0  0  0  0  0  0  0
   -4.2333    0.8208    0.0000 C   0  0  0  0  0  0  0  0  0  0  0  0
  2  1  2  0  0  0  0
  3  1  1  0  0  0  0
  4  6  2  0  0  0  0
  5  9  1  0  0  0  0
  6 14  1  0  0  0  0
  7  2  1  0  0  0  0
  8  5  2  0  0  0  0
  9  3  2  0  0  0  0
 10  4  1  0  0  0  0
 11  9  1  0  0  0  0
 12  1  1  0  0  0  0
 13  2  1  0  0  0  0
 14 20  1  0  0  0  0
 15 22  1  0  0  0  0
 16  8  1  0  0  0  0
 17  4  1  0  0  0  0
 18  6  1  0  0  0  0
 19 13  1  0  0  0  0
 20 21  1  0  0  0  0
 21 15  1  0  0  0  0
 22 19  1  0  0  0  0
 23 12  1  0  0  0  0
 24 18  2  0  0  0  0
 25 24  1  0  0  0  0
 11  7  2  0  0  0  0
 17 25  2  0  0  0  0
M  END
>  <ID> (6461862)
6461862

>  <Supplier> (6461862)
ChemBridge

>  <clogP> (6461862)
5.780000000000000e+000

>  <RB> (6461862)
9

>  <tPSA> (6461862)
3.692000000000000e+001

>  <Hacc> (6461862)
4

>  <Hdon> (6461862)
0

>  <LogSw> (6461862)
-7.447000000000000e+000

>  <Group> (6461862)
1

>  <Core> (6461862)
317

$$$$
6461861
  -ISIS-  03310818242D

 20 20  0  0  0  0  0  0  0  0999 V2000
    7.8167   -3.7792    0.0000 N   0  0  0  0  0  0  0  0  0  0  0  0
    8.5292   -4.1875    0.0000 C   0  0  3  0  0  0  0  0  0  0  0  0
    7.1042   -4.1917    0.0000 C   0  0  0  0  0  0  0  0  0  0  0  0
    7.1042   -5.0167    0.0000 O   0  0  0  0  0  0  0  0  0  0  0  0
    5.6750   -4.1917    0.0000 O   0  0  0  0  0  0  0  0  0  0  0  0
    6.3875   -3.7792    0.0000 C   0  0  0  0  0  0  0  0  0  0  0  0
    8.5292   -5.0125    0.0000 C   0  0  3  0  0  0  0  0  0  0  0  0
    9.2417   -3.7750    0.0000 C   0  0  3  0  0  0  0  0  0  0  0  0
    4.9542   -3.7792    0.0000 C   0  0  0  0  0  0  0  0  0  0  0  0
    3.5292   -2.9542    0.0000 C   0  0  0  0  0  0  0  0  0  0  0  0
    4.9625   -2.9542    0.0000 C   0  0  0  0  0  0  0  0  0  0  0  0
    4.2500   -4.1917    0.0000 C   0  0  0  0  0  0  0  0  0  0  0  0
    3.5375   -3.7792    0.0000 C   0  0  0  0  0  0  0  0  0  0  0  0
    4.2500   -2.5417    0.0000 C   0  0  0  0  0  0  0  0  0  0  0  0
    2.8167   -2.5417    0.0000 O   0  0  0  0  0  0  0  0  0  0  0  0
    9.9542   -4.1875    0.0000 C   0  0  0  0  0  0  0  0  0  0  0  0
    9.2417   -2.9500    0.0000 C   0  0  0  0  0  0  0  0  0  0  0  0
    7.8167   -5.4292    0.0000 C   0  0  0  0  0  0  0  0  0  0  0  0
    9.2417   -5.4250    0.0000 C   0  0  0  0  0  0  0  0  0  0  0  0
    2.1000   -2.9500    0.0000 C   0  0  0  0  0  0  0  0  0  0  0  0
  2  1  1  0  0  0  0
  3  1  1  0  0  0  0
  4  3  2  0  0  0  0
  5  6  1  0  0  0  0
  6  3  1  0  0  0  0
  7  2  1  0  0  0  0
  8  2  1  0  0  0  0
  9  5  1  0  0  0  0
 10 13  1  0  0  0  0
 11  9  2  0  0  0  0
 12  9  1  0  0  0  0
 13 12  2  0  0  0  0
 14 11  1  0  0  0  0
 15 10  1  0  0  0  0
 16  8  1  0  0  0  0
 17  8  1  0  0  0  0
 18  7  1  0  0  0  0
 19  7  1  0  0  0  0
 20 15  1  0  0  0  0
 10 14  2  0  0  0  0
M  END
>  <ID> (6461861)
6461861

>  <Supplier> (6461861)
ChemBridge

>  <clogP> (6461861)
3.600000000000000e+000

>  <RB> (6461861)
4

>  <tPSA> (6461861)
4.756000000000000e+001

>  <Hacc> (6461861)
3

>  <Hdon> (6461861)
1

>  <LogSw> (6461861)
-4.311999999999999e+000

>  <Group> (6461861)
2

>  <Core> (6461861)
315

$$$$
5201083
  -ISIS-  03310818212D

 32 35  0  0  0  0  0  0  0  0999 V2000
    2.6292   -4.3292    0.0000 N   0  0  3  0  0  0  0  0  0  0  0  0
    3.5292   -3.8000    0.0000 C   0  0  0  0  0  0  0  0  0  0  0  0
    1.6667   -3.8000    0.0000 N   0  0  0  0  0  0  0  0  0  0  0  0
    3.5292   -2.6542    0.0000 C   0  0  0  0  0  0  0  0  0  0  0  0
    1.6667   -2.6542    0.0000 C   0  0  0  0  0  0  0  0  0  0  0  0
    4.4542   -4.3292    0.0000 N   0  0  3  0  0  0  0  0  0  0  0  0
    7.3792   -2.7000    0.0000 C   0  0  0  0  0  0  0  0  0  0  0  0
    2.6292   -5.4000    0.0000 C   0  0  0  0  0  0  0  0  0  0  0  0
    5.4667   -2.7000    0.0000 N   0  0  0  0  0  0  0  0  0  0  0  0
    4.5167   -2.1542    0.0000 C   0  0  0  0  0  0  0  0  0  0  0  0
    9.2667   -2.7000    0.0000 N   0  0  0  0  0  0  0  0  0  0  0  0
    6.4292   -2.1542    0.0000 N   0  0  0  0  0  0  0  0  0  0  0  0
   10.2292   -2.1542    0.0000 C   0  0  0  0  0  0  0  0  0  0  0  0
    7.3792   -3.8000    0.0000 O   0  0  0  0  0  0  0  0  0  0  0  0
    8.3375   -2.1542    0.0000 C   0  0  0  0  0  0  0  0  0  0  0  0
   11.1792   -2.7000    0.0000 C   0  0  0  0  0  0  0  0  0  0  0  0
    0.7667   -2.1542    0.0000 C   0  0  0  0  0  0  0  0  0  0  0  0
    5.3875   -3.7542    0.0000 C   0  0  0  0  0  0  0  0  0  0  0  0
    4.4542   -5.3542    0.0000 C   0  0  0  0  0  0  0  0  0  0  0  0
    3.5042   -5.9542    0.0000 C   0  0  0  0  0  0  0  0  0  0  0  0
    1.6500   -5.9292    0.0000 C   0  0  0  0  0  0  0  0  0  0  0  0
   10.2292   -1.0292    0.0000 C   0  0  0  0  0  0  0  0  0  0  0  0
   11.1875   -3.7792    0.0000 C   0  0  0  0  0  0  0  0  0  0  0  0
   12.1375   -2.1542    0.0000 C   0  0  0  0  0  0  0  0  0  0  0  0
    6.2667   -4.2542    0.0000 C   0  0  0  0  0  0  0  0  0  0  0  0
    5.3667   -5.9292    0.0000 C   0  0  0  0  0  0  0  0  0  0  0  0
    1.6500   -7.0000    0.0000 C   0  0  0  0  0  0  0  0  0  0  0  0
   11.1792   -0.5000    0.0000 C   0  0  0  0  0  0  0  0  0  0  0  0
   12.1375   -1.0292    0.0000 C   0  0  0  0  0  0  0  0  0  0  0  0
    3.5042   -7.0000    0.0000 C   0  0  0  0  0  0  0  0  0  0  0  0
    6.2667   -5.4000    0.0000 C   0  0  0  0  0  0  0  0  0  0  0  0
    2.5500   -7.5542    0.0000 C   0  0  0  0  0  0  0  0  0  0  0  0
  2  1  1  0  0  0  0
  3  1  1  0  0  0  0
  4  2  2  0  0  0  0
  5  3  2  0  0  0  0
  6  2  1  0  0  0  0
  7 12  1  0  0  0  0
  8  1  1  0  0  0  0
  9 10  2  0  0  0  0
 10  4  1  0  0  0  0
 11 15  1  0  0  0  0
 12  9  1  0  0  0  0
 13 11  1  0  0  0  0
 14  7  2  0  0  0  0
 15  7  1  0  0  0  0
 16 13  1  0  0  0  0
 17  5  1  0  0  0  0
 18  6  1  0  0  0  0
 19  6  1  0  0  0  0
 20  8  2  0  0  0  0
 21  8  1  0  0  0  0
 22 13  2  0  0  0  0
 23 16  1  0  0  0  0
 24 16  2  0  0  0  0
 25 18  1  0  0  0  0
 26 19  1  0  0  0  0
 27 21  2  0  0  0  0
 28 22  1  0  0  0  0
 29 28  2  0  0  0  0
 30 20  1  0  0  0  0
 31 26  1  0  0  0  0
 32 27  1  0  0  0  0
  5  4  1  0  0  0  0
 32 30  2  0  0  0  0
 31 25  1  0  0  0  0
 29 24  1  0  0  0  0
M  END
>  <ID> (5201083)
5201083

>  <Supplier> (5201083)
ChemBridge

>  <clogP> (5201083)
4.790000000000000e+000

>  <RB> (5201083)
7

>  <tPSA> (5201083)
7.455000000000000e+001

>  <Hacc> (5201083)
4

>  <Hdon> (5201083)
2

>  <LogSw> (5201083)
-6.429000000000000e+000

>  <Group> (5201083)
3

>  <Core> (5201083)
216

$$$$
7960885
  -ISIS-  03310818282D

 27 28  0  0  0  0  0  0  0  0999 V2000
    7.3792    4.0917    0.0000 S   0  0  3  0  0  0  0  0  0  0  0  0
    2.8292    2.2333    0.0000 C   0  0  0  0  0  0  0  0  0  0  0  0
    4.7792    1.8583    0.0000 C   0  0  0  0  0  0  0  0  0  0  0  0
    4.1292    2.2333    0.0000 N   0  0  0  0  0  0  0  0  0  0  0  0
    3.4792    1.8583    0.0000 C   0  0  0  0  0  0  0  0  0  0  0  0
    2.8292    2.9833    0.0000 C   0  0  0  0  0  0  0  0  0  0  0  0
    7.3792    3.3583    0.0000 N   0  0  0  0  0  0  0  0  0  0  0  0
    8.1042    4.2917    0.0000 O   0  0  0  0  0  0  0  0  0  0  0  0
    7.2500    4.8375    0.0000 O   0  0  0  0  0  0  0  0  0  0  0  0
    5.4292    2.2333    0.0000 C   0  0  0  0  0  0  0  0  0  0  0  0
    4.7792    1.1083    0.0000 O   0  0  0  0  0  0  0  0  0  0  0  0
    3.4792    3.3583    0.0000 O   0  0  0  0  0  0  0  0  0  0  0  0
    2.1792    3.3583    0.0000 N   0  0  0  0  0  0  0  0  0  0  0  0
    6.0792    1.8583    0.0000 C   0  0  0  0  0  0  0  0  0  0  0  0
    5.4292    2.9833    0.0000 C   0  0  0  0  0  0  0  0  0  0  0  0
    6.7292    2.9833    0.0000 C   0  0  0  0  0  0  0  0  0  0  0  0
    6.6292    4.0292    0.0000 C   0  0  0  0  0  0  0  0  0  0  0  0
    6.7292    2.2333    0.0000 C   0  0  0  0  0  0  0  0  0  0  0  0
    6.0792    3.3583    0.0000 C   0  0  0  0  0  0  0  0  0  0  0  0
    2.1792    1.8583    0.0000 C   0  0  0  0  0  0  0  0  0  0  0  0
    3.4792    1.1083    0.0000 C   0  0  0  0  0  0  0  0  0  0  0  0
    1.5292    5.2167    0.0000 O   0  0  0  0  0  0  0  0  0  0  0  0
    2.1792    4.0917    0.0000 C   0  0  0  0  0  0  0  0  0  0  0  0
    1.5292    4.4667    0.0000 C   0  0  0  0  0  0  0  0  0  0  0  0
    0.8792    5.5917    0.0000 C   0  0  0  0  0  0  0  0  0  0  0  0
    2.1792    1.1083    0.0000 C   0  0  0  0  0  0  0  0  0  0  0  0
    2.8292    0.7333    0.0000 C   0  0  0  0  0  0  0  0  0  0  0  0
  2  5  1  0  0  0  0
  3 10  1  0  0  0  0
  4  3  1  0  0  0  0
  5  4  1  0  0  0  0
  6  2  1  0  0  0  0
  7  1  1  0  0  0  0
  8  1  2  0  0  0  0
  9  1  2  0  0  0  0
 10 15  1  0  0  0  0
 11  3  2  0  0  0  0
 12  6  2  0  0  0  0
 13  6  1  0  0  0  0
 14 18  1  0  0  0  0
 15 19  2  0  0  0  0
 16  7  1  0  0  0  0
 17  1  1  0  0  0  0
 18 16  2  0  0  0  0
 19 16  1  0  0  0  0
 20  2  2  0  0  0  0
 21  5  2  0  0  0  0
 22 24  1  0  0  0  0
 23 13  1  0  0  0  0
 24 23  1  0  0  0  0
 25 22  1  0  0  0  0
 26 27  2  0  0  0  0
 27 21  1  0  0  0  0
 14 10  2  0  0  0  0
 26 20  1  0  0  0  0
M  END
>  <ID> (7960885)
7960885

>  <Supplier> (7960885)
ChemBridge

>  <clogP> (7960885)
1.058000000000000e+000

>  <RB> (7960885)
6

>  <tPSA> (7960885)
1.136000000000000e+002

>  <Hacc> (7960885)
5

>  <Hdon> (7960885)
3

>  <LogSw> (7960885)
-2.957000000000000e+000

>  <Group> (7960885)
1

>  <Core> (7960885)
141

$$$$
7921727
  -ISIS-  03310818272D

 28 31  0  0  0  0  0  0  0  0999 V2000
    5.4542    3.6958    0.0000 C   0  0  0  0  0  0  0  0  0  0  0  0
    6.7542    2.9458    0.0000 N   0  0  0  0  0  0  0  0  0  0  0  0
    6.1042    4.0625    0.0000 C   0  0  0  0  0  0  0  0  0  0  0  0
    6.1042    2.5708    0.0000 C   0  0  0  0  0  0  0  0  0  0  0  0
    5.4542    2.9458    0.0000 C   0  0  0  0  0  0  0  0  0  0  0  0
    6.7542    3.6958    0.0000 C   0  0  0  0  0  0  0  0  0  0  0  0
    4.8042    4.0625    0.0000 C   0  0  0  0  0  0  0  0  0  0  0  0
    0.3750    3.4458    0.0000 N   0  0  0  0  0  0  0  0  0  0  0  0
    1.5542    3.6958    0.0000 N   0  0  3  0  0  0  0  0  0  0  0  0
    0.8750    4.0000    0.0000 C   0  0  0  0  0  0  0  0  0  0  0  0
    6.1042    4.8125    0.0000 C   0  0  0  0  0  0  0  0  0  0  0  0
    0.7500    2.7958    0.0000 C   0  0  0  0  0  0  0  0  0  0  0  0
    1.4792    2.9458    0.0000 C   0  0  0  0  0  0  0  0  0  0  0  0
    4.8042    4.8125    0.0000 O   0  0  0  0  0  0  0  0  0  0  0  0
    6.1042    1.8208    0.0000 C   0  0  0  0  0  0  0  0  0  0  0  0
    6.1042    0.3208    0.0000 N   0  0  0  0  0  0  0  0  0  0  0  0
    7.4042    4.0625    0.0000 C   0  0  0  0  0  0  0  0  0  0  0  0
    4.1542    3.6958    0.0000 N   0  0  0  0  0  0  0  0  0  0  0  0
    6.7542    5.1875    0.0000 C   0  0  0  0  0  0  0  0  0  0  0  0
    7.4042    4.8125    0.0000 C   0  0  0  0  0  0  0  0  0  0  0  0
    6.7542    5.9375    0.0000 Br  0  0  0  0  0  0  0  0  0  0  0  0
    2.2042    4.0625    0.0000 C   0  0  0  0  0  0  0  0  0  0  0  0
    2.8542    3.6958    0.0000 C   0  0  0  0  0  0  0  0  0  0  0  0
    6.7542    0.6958    0.0000 C   0  0  0  0  0  0  0  0  0  0  0  0
    5.4542    0.6958    0.0000 C   0  0  0  0  0  0  0  0  0  0  0  0
    3.5042    4.0625    0.0000 C   0  0  0  0  0  0  0  0  0  0  0  0
    6.7542    1.4458    0.0000 C   0  0  0  0  0  0  0  0  0  0  0  0
    5.4542    1.4458    0.0000 C   0  0  0  0  0  0  0  0  0  0  0  0
  2  4  2  0  0  0  0
  3  1  1  0  0  0  0
  4  5  1  0  0  0  0
  5  1  2  0  0  0  0
  6  3  2  0  0  0  0
  7  1  1  0  0  0  0
  8 10  2  0  0  0  0
  9 22  1  0  0  0  0
 10  9  1  0  0  0  0
 11  3  1  0  0  0  0
 12 13  2  0  0  0  0
 13  9  1  0  0  0  0
 14  7  2  0  0  0  0
 15  4  1  0  0  0  0
 16 25  2  0  0  0  0
 17  6  1  0  0  0  0
 18  7  1  0  0  0  0
 19 11  2  0  0  0  0
 20 19  1  0  0  0  0
 21 19  1  0  0  0  0
 22 23  1  0  0  0  0
 23 26  1  0  0  0  0
 24 27  2  0  0  0  0
 25 28  1  0  0  0  0
 26 18  1  0  0  0  0
 27 15  1  0  0  0  0
 28 15  2  0  0  0  0
  2  6  1  0  0  0  0
 17 20  2  0  0  0  0
 16 24  1  0  0  0  0
  8 12  1  0  0  0  0
M  END
>  <ID> (7921727)
7921727

>  <Supplier> (7921727)
ChemBridge

>  <clogP> (7921727)
3.350000000000000e+000

>  <RB> (7921727)
6

>  <tPSA> (7921727)
7.270000000000000e+001

>  <Hacc> (7921727)
4

>  <Hdon> (7921727)
1

>  <LogSw> (7921727)
-5.241000000000001e+000

>  <Group> (7921727)
1

>  <Core> (7921727)
120

$$$$
7917847
  -ISIS-  03310818272D

 28 31  0  0  0  0  0  0  0  0999 V2000
    4.2250    2.5208    0.0000 C   0  0  0  0  0  0  0  0  0  0  0  0
    4.9375    2.7458    0.0000 N   0  0  0  0  0  0  0  0  0  0  0  0
    3.7792    3.1208    0.0000 C   0  0  0  0  0  0  0  0  0  0  0  0
    3.9917    1.8000    0.0000 S   0  0  3  0  0  0  0  0  0  0  0  0
    4.2250    3.7333    0.0000 O   0  0  0  0  0  0  0  0  0  0  0  0
    4.9375    3.4958    0.0000 C   0  0  0  0  0  0  0  0  0  0  0  0
    3.0292    3.1208    0.0000 N   0  0  3  0  0  0  0  0  0  0  0  0
    5.5417    3.9375    0.0000 C   0  0  0  0  0  0  0  0  0  0  0  0
    0.7792    3.1208    0.0000 C   0  0  0  0  0  0  0  0  0  0  0  0
    6.2542    3.7083    0.0000 S   0  0  0  0  0  0  0  0  0  0  0  0
    3.3042    2.0958    0.0000 O   0  0  0  0  0  0  0  0  0  0  0  0
    3.6417    1.1375    0.0000 O   0  0  0  0  0  0  0  0  0  0  0  0
    4.6167    1.3958    0.0000 C   0  0  0  0  0  0  0  0  0  0  0  0
    2.6542    3.7708    0.0000 C   0  0  0  0  0  0  0  0  0  0  0  0
    2.6542    2.4708    0.0000 C   0  0  0  0  0  0  0  0  0  0  0  0
    1.5292    3.1208    0.0000 C   0  0  3  0  0  0  0  0  0  0  0  0
    5.5417    4.6792    0.0000 C   0  0  0  0  0  0  0  0  0  0  0  0
    6.7000    4.3042    0.0000 C   0  0  0  0  0  0  0  0  0  0  0  0
    0.4042    2.4708    0.0000 O   0  0  0  0  0  0  0  0  0  0  0  0
    6.2542    4.9042    0.0000 C   0  0  0  0  0  0  0  0  0  0  0  0
    1.9042    3.7708    0.0000 C   0  0  0  0  0  0  0  0  0  0  0  0
    1.9042    2.4708    0.0000 C   0  0  0  0  0  0  0  0  0  0  0  0
    0.4042    3.7708    0.0000 N   0  0  0  0  0  0  0  0  0  0  0  0
    4.5792    0.6458    0.0000 C   0  0  0  0  0  0  0  0  0  0  0  0
    5.2917    1.7333    0.0000 C   0  0  0  0  0  0  0  0  0  0  0  0
    5.9167    1.3250    0.0000 C   0  0  0  0  0  0  0  0  0  0  0  0
    5.2125    0.2333    0.0000 C   0  0  0  0  0  0  0  0  0  0  0  0
    5.8792    0.5750    0.0000 C   0  0  0  0  0  0  0  0  0  0  0  0
  2  1  1  0  0  0  0
  3  1  2  0  0  0  0
  4  1  1  0  0  0  0
  5  3  1  0  0  0  0
  6  2  2  0  0  0  0
  7  3  1  0  0  0  0
  8  6  1  0  0  0  0
  9 16  1  0  0  0  0
 10  8  1  0  0  0  0
 11  4  2  0  0  0  0
 12  4  2  0  0  0  0
 13  4  1  0  0  0  0
 14  7  1  0  0  0  0
 15  7  1  0  0  0  0
 16 22  1  0  0  0  0
 17  8  2  0  0  0  0
 18 10  1  0  0  0  0
 19  9  2  0  0  0  0
 20 17  1  0  0  0  0
 21 14  1  0  0  0  0
 22 15  1  0  0  0  0
 23  9  1  0  0  0  0
 24 13  1  0  0  0  0
 25 13  2  0  0  0  0
 26 25  1  0  0  0  0
 27 24  2  0  0  0  0
 28 26  2  0  0  0  0
  6  5  1  0  0  0  0
 16 21  1  0  0  0  0
 28 27  1  0  0  0  0
 20 18  2  0  0  0  0
M  END
>  <ID> (7917847)
7917847

>  <Supplier> (7917847)
ChemBridge

>  <clogP> (7917847)
2.990000000000000e+000

>  <RB> (7917847)
5

>  <tPSA> (7917847)
1.065000000000000e+002

>  <Hacc> (7917847)
5

>  <Hdon> (7917847)
1

>  <LogSw> (7917847)
-4.797000000000000e+000

>  <Group> (7917847)
3

>  <Core> (7917847)
260

$$$$
7921724
  -ISIS-  03310818272D

 35 39  0  0  0  0  0  0  0  0999 V2000
    4.5042    2.4458    0.0000 C   0  0  0  0  0  0  0  0  0  0  0  0
    3.3500    2.8208    0.0000 N   0  0  3  0  0  0  0  0  0  0  0  0
    3.3500    2.0708    0.0000 N   0  0  0  0  0  0  0  0  0  0  0  0
    4.0625    3.0500    0.0000 C   0  0  0  0  0  0  0  0  0  0  0  0
    4.0625    1.8375    0.0000 C   0  0  0  0  0  0  0  0  0  0  0  0
    7.8792    3.0958    0.0000 N   0  0  0  0  0  0  0  0  0  0  0  0
    5.2542    2.4458    0.0000 N   0  0  0  0  0  0  0  0  0  0  0  0
    5.6292    3.0958    0.0000 C   0  0  0  0  0  0  0  0  0  0  0  0
    6.3792    3.0958    0.0000 C   0  0  0  0  0  0  0  0  0  0  0  0
    7.5042    3.7458    0.0000 C   0  0  0  0  0  0  0  0  0  0  0  0
    7.5042    2.4458    0.0000 C   0  0  0  0  0  0  0  0  0  0  0  0
    6.7542    3.7458    0.0000 C   0  0  0  0  0  0  0  0  0  0  0  0
    6.7542    2.4458    0.0000 C   0  0  0  0  0  0  0  0  0  0  0  0
    2.7417    3.2583    0.0000 C   0  0  0  0  0  0  0  0  0  0  0  0
    5.2542    3.7458    0.0000 O   0  0  0  0  0  0  0  0  0  0  0  0
    7.8792    4.3875    0.0000 C   0  0  0  0  0  0  0  0  0  0  0  0
    7.8792    1.7958    0.0000 C   0  0  0  0  0  0  0  0  0  0  0  0
    8.6292    0.4958    0.0000 N   0  0  0  0  0  0  0  0  0  0  0  0
    2.0542    2.9583    0.0000 C   0  0  0  0  0  0  0  0  0  0  0  0
    4.2917    3.7708    0.0000 C   0  0  0  0  0  0  0  0  0  0  0  0
    0.6875    2.3458    0.0000 C   0  0  0  0  0  0  0  0  0  0  0  0
    8.6292    4.3875    0.0000 Cl  0  0  0  0  0  0  0  0  0  0  0  0
    4.2917    1.1208    0.0000 C   0  0  0  0  0  0  0  0  0  0  0  0
    0.0042    2.0375    0.0000 F   0  0  0  0  0  0  0  0  0  0  0  0
    6.3792    4.3875    0.0000 C   0  0  0  0  0  0  0  0  0  0  0  0
    1.9792    2.2083    0.0000 C   0  0  0  0  0  0  0  0  0  0  0  0
    1.4500    3.3958    0.0000 C   0  0  0  0  0  0  0  0  0  0  0  0
    1.2917    1.9083    0.0000 C   0  0  0  0  0  0  0  0  0  0  0  0
    0.7667    3.0875    0.0000 C   0  0  0  0  0  0  0  0  0  0  0  0
    6.7542    5.0292    0.0000 C   0  0  0  0  0  0  0  0  0  0  0  0
    9.0042    1.1458    0.0000 C   0  0  0  0  0  0  0  0  0  0  0  0
    7.8792    0.4958    0.0000 C   0  0  0  0  0  0  0  0  0  0  0  0
    7.5042    5.0292    0.0000 C   0  0  0  0  0  0  0  0  0  0  0  0
    8.6292    1.7958    0.0000 C   0  0  0  0  0  0  0  0  0  0  0  0
    7.5042    1.1458    0.0000 C   0  0  0  0  0  0  0  0  0  0  0  0
  2  4  1  0  0  0  0
  3  5  2  0  0  0  0
  4  1  2  0  0  0  0
  5  1  1  0  0  0  0
  6 11  1  0  0  0  0
  7  1  1  0  0  0  0
  8  7  1  0  0  0  0
  9  8  1  0  0  0  0
 10 12  1  0  0  0  0
 11 13  2  0  0  0  0
 12  9  2  0  0  0  0
 13  9  1  0  0  0  0
 14  2  1  0  0  0  0
 15  8  2  0  0  0  0
 16 10  1  0  0  0  0
 17 11  1  0  0  0  0
 18 32  2  0  0  0  0
 19 14  1  0  0  0  0
 20  4  1  0  0  0  0
 21 29  2  0  0  0  0
 22 16  1  0  0  0  0
 23  5  1  0  0  0  0
 24 21  1  0  0  0  0
 25 12  1  0  0  0  0
 26 19  1  0  0  0  0
 27 19  2  0  0  0  0
 28 26  2  0  0  0  0
 29 27  1  0  0  0  0
 30 25  2  0  0  0  0
 31 34  2  0  0  0  0
 32 35  1  0  0  0  0
 33 30  1  0  0  0  0
 34 17  1  0  0  0  0
 35 17  2  0  0  0  0
  2  3  1  0  0  0  0
  6 10  2  0  0  0  0
 21 28  1  0  0  0  0
 16 33  2  0  0  0  0
 31 18  1  0  0  0  0
M  END
>  <ID> (7921724)
7921724

>  <Supplier> (7921724)
ChemBridge

>  <clogP> (7921724)
4.080000000000000e+000

>  <RB> (7921724)
5

>  <tPSA> (7921724)
7.270000000000000e+001

>  <Hacc> (7921724)
4

>  <Hdon> (7921724)
1

>  <LogSw> (7921724)
-6.226000000000000e+000

>  <Group> (7921724)
2

>  <Core> (7921724)
120

$$$$
7921723
  -ISIS-  03310818272D

 35 39  0  0  0  0  0  0  0  0999 V2000
    2.1750    0.5583    0.0000 S   0  0  3  0  0  0  0  0  0  0  0  0
    7.3667    2.8083    0.0000 N   0  0  0  0  0  0  0  0  0  0  0  0
    6.0667    2.0583    0.0000 C   0  0  0  0  0  0  0  0  0  0  0  0
    5.4167    1.6833    0.0000 C   0  0  0  0  0  0  0  0  0  0  0  0
    1.6417    1.0875    0.0000 N   0  0  3  0  0  0  0  0  0  0  0  0
    6.7167    3.1833    0.0000 C   0  0  0  0  0  0  0  0  0  0  0  0
    7.3667    2.0583    0.0000 C   0  0  0  0  0  0  0  0  0  0  0  0
    6.0667    2.8083    0.0000 C   0  0  0  0  0  0  0  0  0  0  0  0
    6.7167    1.6833    0.0000 C   0  0  0  0  0  0  0  0  0  0  0  0
    2.8167    0.9333    0.0000 C   0  0  0  0  0  0  0  0  0  0  0  0
    4.7667    2.0583    0.0000 N   0  0  0  0  0  0  0  0  0  0  0  0
    1.6000    0.0750    0.0000 O   0  0  0  0  0  0  0  0  0  0  0  0
    2.6042   -0.0542    0.0000 O   0  0  0  0  0  0  0  0  0  0  0  0
    5.4167    0.9333    0.0000 O   0  0  0  0  0  0  0  0  0  0  0  0
    6.7167    3.9333    0.0000 C   0  0  0  0  0  0  0  0  0  0  0  0
    8.0167    1.6833    0.0000 C   0  0  0  0  0  0  0  0  0  0  0  0
    9.3167    0.9333    0.0000 N   0  0  0  0  0  0  0  0  0  0  0  0
    0.5792    2.1500    0.0000 O   0  0  0  0  0  0  0  0  0  0  0  0
    3.4667    0.5583    0.0000 C   0  0  0  0  0  0  0  0  0  0  0  0
    2.8167    1.6833    0.0000 C   0  0  0  0  0  0  0  0  0  0  0  0
    4.1167    1.6833    0.0000 C   0  0  0  0  0  0  0  0  0  0  0  0
    0.9167    0.8958    0.0000 C   0  0  0  0  0  0  0  0  0  0  0  0
    1.8375    1.8125    0.0000 C   0  0  0  0  0  0  0  0  0  0  0  0
    7.3667    4.3042    0.0000 Cl  0  0  0  0  0  0  0  0  0  0  0  0
    3.4667    2.0583    0.0000 C   0  0  0  0  0  0  0  0  0  0  0  0
    4.1167    0.9333    0.0000 C   0  0  0  0  0  0  0  0  0  0  0  0
    5.4167    3.1833    0.0000 C   0  0  0  0  0  0  0  0  0  0  0  0
    0.3875    1.4250    0.0000 C   0  0  0  0  0  0  0  0  0  0  0  0
    1.3042    2.3458    0.0000 C   0  0  0  0  0  0  0  0  0  0  0  0
    5.4167    3.9333    0.0000 C   0  0  0  0  0  0  0  0  0  0  0  0
    9.3167    1.6833    0.0000 C   0  0  0  0  0  0  0  0  0  0  0  0
    8.6667    0.5583    0.0000 C   0  0  0  0  0  0  0  0  0  0  0  0
    6.0667    4.3042    0.0000 C   0  0  0  0  0  0  0  0  0  0  0  0
    8.6667    2.0583    0.0000 C   0  0  0  0  0  0  0  0  0  0  0  0
    8.0167    0.9333    0.0000 C   0  0  0  0  0  0  0  0  0  0  0  0
  2  7  1  0  0  0  0
  3  4  1  0  0  0  0
  4 11  1  0  0  0  0
  5  1  1  0  0  0  0
  6  8  1  0  0  0  0
  7  9  2  0  0  0  0
  8  3  2  0  0  0  0
  9  3  1  0  0  0  0
 10  1  1  0  0  0  0
 11 21  1  0  0  0  0
 12  1  2  0  0  0  0
 13  1  2  0  0  0  0
 14  4  2  0  0  0  0
 15  6  1  0  0  0  0
 16  7  1  0  0  0  0
 17 32  2  0  0  0  0
 18 29  1  0  0  0  0
 19 10  2  0  0  0  0
 20 10  1  0  0  0  0
 21 25  1  0  0  0  0
 22  5  1  0  0  0  0
 23  5  1  0  0  0  0
 24 15  1  0  0  0  0
 25 20  2  0  0  0  0
 26 19  1  0  0  0  0
 27  8  1  0  0  0  0
 28 22  1  0  0  0  0
 29 23  1  0  0  0  0
 30 27  2  0  0  0  0
 31 34  2  0  0  0  0
 32 35  1  0  0  0  0
 33 30  1  0  0  0  0
 34 16  1  0  0  0  0
 35 16  2  0  0  0  0
 21 26  2  0  0  0  0
 18 28  1  0  0  0  0
  2  6  2  0  0  0  0
 15 33  2  0  0  0  0
 31 17  1  0  0  0  0
M  END
>  <ID> (7921723)
7921723

>  <Supplier> (7921723)
ChemBridge

>  <clogP> (7921723)
3.990000000000000e+000

>  <RB> (7921723)
4

>  <tPSA> (7921723)
1.014900000000000e+002

>  <Hacc> (7921723)
6

>  <Hdon> (7921723)
1

>  <LogSw> (7921723)
-6.316999999999998e+000

>  <Group> (7921723)
2

>  <Core> (7921723)
120

$$$$
6911346
  -ISIS-  03310818242D

 28 30  0  0  0  0  0  0  0  0999 V2000
   -9.9000    3.6833    0.0000 C   0  0  0  0  0  0  0  0  0  0  0  0
   -7.0292    3.6833    0.0000 C   0  0  0  0  0  0  0  0  0  0  0  0
   11.6792   -3.7375    0.0000 N   0  0  3  0  0  0  0  0  0  0  0  0
   10.2792   -1.2667    0.0000 C   0  0  0  0  0  0  0  0  0  0  0  0
   -5.5833    1.2000    0.0000 N   0  0  0  0  0  0  0  0  0  0  0  0
  -11.3542    1.2000    0.0000 C   0  0  0  0  0  0  0  0  0  0  0  0
  -11.3542    6.1500    0.0000 C   0  0  0  0  0  0  0  0  0  0  0  0
   -5.5833    6.1500    0.0000 O   0  0  0  0  0  0  0  0  0  0  0  0
    7.3542   -1.2667    0.0000 C   0  0  0  0  0  0  0  0  0  0  0  0
   11.6792    1.2000    0.0000 O   0  0  0  0  0  0  0  0  0  0  0  0
   14.6000   -8.6875    0.0000 O   0  0  0  0  0  0  0  0  0  0  0  0
  -14.2167    1.2000    0.0000 C   0  0  0  0  0  0  0  0  0  0  0  0
   -2.7333    1.2000    0.0000 C   0  0  0  0  0  0  0  0  0  0  0  0
    5.9542    1.2000    0.0000 O   0  0  0  0  0  0  0  0  0  0  0  0
  -14.2167    6.1500    0.0000 C   0  0  0  0  0  0  0  0  0  0  0  0
    3.0375    1.2000    0.0000 C   0  0  0  0  0  0  0  0  0  0  0  0
  -15.6792    3.6833    0.0000 C   0  0  0  0  0  0  0  0  0  0  0  0
  -15.7375    8.7292    0.0000 Cl  0  0  0  0  0  0  0  0  0  0  0  0
   -9.8375   -1.2667    0.0000 O   0  0  0  0  0  0  0  0  0  0  0  0
   -1.2708    3.6833    0.0000 C   0  0  0  0  0  0  0  0  0  0  0  0
   -1.2708   -1.2667    0.0000 C   0  0  0  0  0  0  0  0  0  0  0  0
    1.6500   -1.2667    0.0000 C   0  0  0  0  0  0  0  0  0  0  0  0
    1.6500    3.6833    0.0000 C   0  0  0  0  0  0  0  0  0  0  0  0
   10.2792   -6.2167    0.0000 C   0  0  0  0  0  0  0  0  0  0  0  0
   14.6000   -3.7375    0.0000 C   0  0  0  0  0  0  0  0  0  0  0  0
   11.6792   -8.6875    0.0000 C   0  0  0  0  0  0  0  0  0  0  0  0
   16.0000   -6.2167    0.0000 C   0  0  0  0  0  0  0  0  0  0  0  0
   -6.9167   -1.2667    0.0000 C   0  0  0  0  0  0  0  0  0  0  0  0
  2  1  1  0  0  0  0
  3  4  1  0  0  0  0
  4  9  1  0  0  0  0
  5  2  1  0  0  0  0
  6  1  2  0  0  0  0
  7  1  1  0  0  0  0
  8  2  2  0  0  0  0
  9 14  1  0  0  0  0
 10  4  2  0  0  0  0
 11 27  1  0  0  0  0
 12  6  1  0  0  0  0
 13  5  1  0  0  0  0
 14 16  1  0  0  0  0
 15  7  2  0  0  0  0
 16 22  1  0  0  0  0
 17 15  1  0  0  0  0
 18 15  1  0  0  0  0
 19  6  1  0  0  0  0
 20 13  2  0  0  0  0
 21 13  1  0  0  0  0
 22 21  2  0  0  0  0
 23 20  1  0  0  0  0
 24  3  1  0  0  0  0
 25  3  1  0  0  0  0
 26 24  1  0  0  0  0
 27 25  1  0  0  0  0
 28 19  1  0  0  0  0
 17 12  2  0  0  0  0
 23 16  2  0  0  0  0
 11 26  1  0  0  0  0
M  END
>  <ID> (6911346)
6911346

>  <Supplier> (6911346)
ChemBridge

>  <clogP> (6911346)
2.880000000000000e+000

>  <RB> (6911346)
5

>  <tPSA> (6911346)
7.709999999999999e+001

>  <Hacc> (6911346)
5

>  <Hdon> (6911346)
1

>  <LogSw> (6911346)
-4.611000000000000e+000

>  <Group> (6911346)
1

>  <Core> (6911346)
315

$$$$
6541502
  -ISIS-  03310818242D

 28 29  0  0  0  0  0  0  0  0999 V2000
    5.2875    0.4458    0.0000 S   0  0  3  0  0  0  0  0  0  0  0  0
    4.6375    0.8208    0.0000 N   0  0  3  0  0  0  0  0  0  0  0  0
    3.3375    1.5708    0.0000 N   0  0  3  0  0  0  0  0  0  0  0  0
    4.3917    4.5667    0.0000 C   0  0  0  0  0  0  0  0  0  0  0  0
    5.1292    4.4167    0.0000 C   0  0  0  0  0  0  0  0  0  0  0  0
    5.8167    0.9708    0.0000 C   0  0  0  0  0  0  0  0  0  0  0  0
    4.8542   -0.1750    0.0000 O   0  0  0  0  0  0  0  0  0  0  0  0
    5.8625   -0.0417    0.0000 O   0  0  0  0  0  0  0  0  0  0  0  0
    3.9875    0.4458    0.0000 C   0  0  0  0  0  0  0  0  0  0  0  0
    4.6375    1.5708    0.0000 C   0  0  0  0  0  0  0  0  0  0  0  0
    3.9875    1.9458    0.0000 C   0  0  0  0  0  0  0  0  0  0  0  0
    3.3375    0.8208    0.0000 C   0  0  0  0  0  0  0  0  0  0  0  0
    4.1417    5.2750    0.0000 O   0  0  0  0  0  0  0  0  0  0  0  0
    5.3750    3.7208    0.0000 O   0  0  0  0  0  0  0  0  0  0  0  0
    2.6875    1.9458    0.0000 C   0  0  3  0  0  0  0  0  0  0  0  0
    6.5417    0.7750    0.0000 C   0  0  0  0  0  0  0  0  0  0  0  0
    5.6167    1.6958    0.0000 C   0  0  0  0  0  0  0  0  0  0  0  0
    5.6167    4.9917    0.0000 O   0  0  0  0  0  0  0  0  0  0  0  0
    3.9000    4.0000    0.0000 O   0  0  0  0  0  0  0  0  0  0  0  0
    6.8750    2.0333    0.0000 C   0  0  0  0  0  0  0  0  0  0  0  0
    6.1542    2.2250    0.0000 C   0  0  0  0  0  0  0  0  0  0  0  0
    7.0667    1.3083    0.0000 C   0  0  0  0  0  0  0  0  0  0  0  0
    7.4042    2.5625    0.0000 F   0  0  0  0  0  0  0  0  0  0  0  0
    2.6875    2.6958    0.0000 C   0  0  0  0  0  0  0  0  0  0  0  0
    2.0375    1.5708    0.0000 C   0  0  0  0  0  0  0  0  0  0  0  0
    1.3875    1.9458    0.0000 C   0  0  0  0  0  0  0  0  0  0  0  0
    2.0375    3.0708    0.0000 C   0  0  0  0  0  0  0  0  0  0  0  0
    1.3875    2.6958    0.0000 C   0  0  0  0  0  0  0  0  0  0  0  0
  2  1  1  0  0  0  0
  3 11  1  0  0  0  0
  5  4  1  0  0  0  0
  6  1  1  0  0  0  0
  7  1  2  0  0  0  0
  8  1  2  0  0  0  0
  9  2  1  0  0  0  0
 10  2  1  0  0  0  0
 11 10  1  0  0  0  0
 12  9  1  0  0  0  0
 13  4  2  0  0  0  0
 14  5  2  0  0  0  0
 15  3  1  0  0  0  0
 16  6  1  0  0  0  0
 17  6  2  0  0  0  0
 18  5  1  0  0  0  0
 19  4  1  0  0  0  0
 20 21  2  0  0  0  0
 21 17  1  0  0  0  0
 22 16  2  0  0  0  0
 23 20  1  0  0  0  0
 24 15  1  0  0  0  0
 25 15  1  0  0  0  0
 26 25  1  0  0  0  0
 27 24  1  0  0  0  0
 28 26  1  0  0  0  0
 20 22  1  0  0  0  0
 12  3  1  0  0  0  0
 27 28  1  0  0  0  0
M  END
>  <ID> (6541502)
6541502

>  <Supplier> (6541502)
ChemBridge

>  <clogP> (6541502)
5.100000000000000e-001

>  <RB> (6541502)
2

>  <tPSA> (6541502)
1.152200000000000e+002

>  <Hacc> (6541502)
8

>  <Hdon> (6541502)
2

>  <LogSw> (6541502)
-1.008000000000000e+000

>  <Group> (6541502)
3

>  <Core> (6541502)
167

$$$$
7917846
  -ISIS-  03310818272D

 28 31  0  0  0  0  0  0  0  0999 V2000
    5.6000    1.9833    0.0000 C   0  0  0  0  0  0  0  0  0  0  0  0
    6.0750    2.5708    0.0000 N   0  0  0  0  0  0  0  0  0  0  0  0
    5.7917    1.2625    0.0000 S   0  0  3  0  0  0  0  0  0  0  0  0
    4.9000    2.2583    0.0000 C   0  0  0  0  0  0  0  0  0  0  0  0
    5.6625    3.1958    0.0000 C   0  0  0  0  0  0  0  0  0  0  0  0
    4.9417    3.0083    0.0000 O   0  0  0  0  0  0  0  0  0  0  0  0
    5.9292    3.8958    0.0000 C   0  0  0  0  0  0  0  0  0  0  0  0
    0.5042    1.3958    0.0000 N   0  0  0  0  0  0  0  0  0  0  0  0
    1.6792    1.7083    0.0000 N   0  0  3  0  0  0  0  0  0  0  0  0
    6.6542    4.0875    0.0000 S   0  0  0  0  0  0  0  0  0  0  0  0
    5.0542    1.1333    0.0000 O   0  0  0  0  0  0  0  0  0  0  0  0
    5.8625    0.5125    0.0000 O   0  0  0  0  0  0  0  0  0  0  0  0
    0.9750    1.9833    0.0000 C   0  0  0  0  0  0  0  0  0  0  0  0
    6.5417    1.2625    0.0000 C   0  0  0  0  0  0  0  0  0  0  0  0
    0.9125    0.7708    0.0000 C   0  0  0  0  0  0  0  0  0  0  0  0
    4.2667    1.8458    0.0000 N   0  0  0  0  0  0  0  0  0  0  0  0
    1.6375    0.9625    0.0000 C   0  0  0  0  0  0  0  0  0  0  0  0
    5.5250    4.5167    0.0000 C   0  0  0  0  0  0  0  0  0  0  0  0
    6.6917    4.8375    0.0000 C   0  0  0  0  0  0  0  0  0  0  0  0
    5.9917    5.1042    0.0000 C   0  0  0  0  0  0  0  0  0  0  0  0
    2.3042    2.1208    0.0000 C   0  0  0  0  0  0  0  0  0  0  0  0
    2.9750    1.7833    0.0000 C   0  0  0  0  0  0  0  0  0  0  0  0
    3.6042    2.1875    0.0000 C   0  0  0  0  0  0  0  0  0  0  0  0
    6.9167    0.6125    0.0000 C   0  0  0  0  0  0  0  0  0  0  0  0
    6.9167    1.9125    0.0000 C   0  0  0  0  0  0  0  0  0  0  0  0
    7.6667    1.9125    0.0000 C   0  0  0  0  0  0  0  0  0  0  0  0
    7.6667    0.6125    0.0000 C   0  0  0  0  0  0  0  0  0  0  0  0
    8.0417    1.2625    0.0000 C   0  0  0  0  0  0  0  0  0  0  0  0
  2  1  1  0  0  0  0
  3  1  1  0  0  0  0
  4  1  2  0  0  0  0
  5  2  2  0  0  0  0
  6  4  1  0  0  0  0
  7  5  1  0  0  0  0
  8 13  2  0  0  0  0
  9 21  1  0  0  0  0
 10  7  1  0  0  0  0
 11  3  2  0  0  0  0
 12  3  2  0  0  0  0
 13  9  1  0  0  0  0
 14  3  1  0  0  0  0
 15 17  2  0  0  0  0
 16  4  1  0  0  0  0
 17  9  1  0  0  0  0
 18  7  2  0  0  0  0
 19 10  1  0  0  0  0
 20 18  1  0  0  0  0
 21 22  1  0  0  0  0
 22 23  1  0  0  0  0
 23 16  1  0  0  0  0
 24 14  1  0  0  0  0
 25 14  2  0  0  0  0
 26 25  1  0  0  0  0
 27 24  2  0  0  0  0
 28 26  2  0  0  0  0
  5  6  1  0  0  0  0
 28 27  1  0  0  0  0
 20 19  2  0  0  0  0
 15  8  1  0  0  0  0
M  END
>  <ID> (7917846)
7917846

>  <Supplier> (7917846)
ChemBridge

>  <clogP> (7917846)
4.250000000000000e+000

>  <RB> (7917846)
8

>  <tPSA> (7917846)
9.002000000000002e+001

>  <Hacc> (7917846)
5

>  <Hdon> (7917846)
1

>  <LogSw> (7917846)
-5.851000000000000e+000

>  <Group> (7917846)
3

>  <Core> (7917846)
260

$$$$
5230736
  -ISIS-  03310818212D

 26 28  0  0  0  0  0  0  0  0999 V2000
    1.2667   -0.3500    0.0000 C   0  0  0  0  0  0  0  0  0  0  0  0
   -1.2958   -0.3500    0.0000 C   0  0  0  0  0  0  0  0  0  0  0  0
   -1.9333   -0.7042    0.0000 N   0  0  0  0  0  0  0  0  0  0  0  0
    1.9042   -0.7042    0.0000 N   0  0  0  0  0  0  0  0  0  0  0  0
    0.6167   -0.7042    0.0000 C   0  0  0  0  0  0  0  0  0  0  0  0
   -0.6625   -0.7042    0.0000 C   0  0  0  0  0  0  0  0  0  0  0  0
   -0.0208   -0.3500    0.0000 C   0  0  0  0  0  0  0  0  0  0  0  0
    1.2875    0.3708    0.0000 O   0  0  0  0  0  0  0  0  0  0  0  0
   -1.2958    0.3708    0.0000 O   0  0  0  0  0  0  0  0  0  0  0  0
   -2.5833   -0.3292    0.0000 C   0  0  0  0  0  0  0  0  0  0  0  0
    2.5542   -0.3500    0.0000 C   0  0  0  0  0  0  0  0  0  0  0  0
    3.8500    0.3958    0.0000 C   0  0  0  0  0  0  0  0  0  0  0  0
   -3.8708    0.4125    0.0000 C   0  0  0  0  0  0  0  0  0  0  0  0
   -4.5000    0.7708    0.0000 N   0  0  0  0  0  0  0  0  0  0  0  0
    4.4792    0.7500    0.0000 N   0  0  0  0  0  0  0  0  0  0  0  0
    2.5542    0.3958    0.0000 C   0  0  0  0  0  0  0  0  0  0  0  0
   -2.5833    0.3958    0.0000 C   0  0  0  0  0  0  0  0  0  0  0  0
    3.2000   -0.7042    0.0000 C   0  0  0  0  0  0  0  0  0  0  0  0
   -3.2208   -0.6875    0.0000 C   0  0  0  0  0  0  0  0  0  0  0  0
    3.8500   -0.3500    0.0000 C   0  0  0  0  0  0  0  0  0  0  0  0
   -3.8708   -0.3292    0.0000 C   0  0  0  0  0  0  0  0  0  0  0  0
   -3.2208    0.7708    0.0000 C   0  0  0  0  0  0  0  0  0  0  0  0
    3.2000    0.7500    0.0000 C   0  0  0  0  0  0  0  0  0  0  0  0
   -0.6625   -1.4542    0.0000 C   0  0  0  0  0  0  0  0  0  0  0  0
    0.6167   -1.4542    0.0000 C   0  0  0  0  0  0  0  0  0  0  0  0
   -0.0208   -1.8167    0.0000 C   0  0  0  0  0  0  0  0  0  0  0  0
  2  6  1  0  0  0  0
  3  2  1  0  0  0  0
  4  1  1  0  0  0  0
  5  1  1  0  0  0  0
  6  7  2  0  0  0  0
  7  5  1  0  0  0  0
  8  1  2  0  0  0  0
  9  2  2  0  0  0  0
 10  3  1  0  0  0  0
 11  4  1  0  0  0  0
 12 20  1  0  0  0  0
 13 21  1  0  0  0  0
 14 13  1  0  0  0  0
 15 12  1  0  0  0  0
 16 11  2  0  0  0  0
 17 10  2  0  0  0  0
 18 11  1  0  0  0  0
 19 10  1  0  0  0  0
 20 18  2  0  0  0  0
 21 19  2  0  0  0  0
 22 17  1  0  0  0  0
 23 16  1  0  0  0  0
 24 26  2  0  0  0  0
 25  5  2  0  0  0  0
 26 25  1  0  0  0  0
 24  6  1  0  0  0  0
 23 12  2  0  0  0  0
 22 13  2  0  0  0  0
M  END
>  <ID> (5230736)
5230736

>  <Supplier> (5230736)
ChemBridge

>  <clogP> (5230736)
1.160000000000000e+000

>  <RB> (5230736)
4

>  <tPSA> (5230736)
1.102400000000000e+002

>  <Hacc> (5230736)
2

>  <Hdon> (5230736)
4

>  <LogSw> (5230736)
-2.716000000000000e+000

>  <Group> (5230736)
3

>  <Core> (5230736)
511

$$$$
6421175
  -ISIS-  03310818232D

 16 17  0  0  0  0  0  0  0  0999 V2000
    3.5292   -4.1917    0.0000 N   0  3  0  0  0  0  0  0  0  0  0  0
    4.2500   -3.7792    0.0000 C   0  0  0  0  0  0  0  0  0  0  0  0
    6.3875   -4.1917    0.0000 C   0  0  0  0  0  0  0  0  0  0  0  0
    4.9625   -4.1917    0.0000 C   0  0  0  0  0  0  0  0  0  0  0  0
    5.6667   -3.7792    0.0000 C   0  0  0  0  0  0  0  0  0  0  0  0
    7.1000   -3.7792    0.0000 N   0  0  0  0  0  0  0  0  0  0  0  0
    7.8042   -4.1875    0.0000 C   0  0  3  0  0  0  0  0  0  0  0  0
    4.2417   -2.9542    0.0000 C   0  0  0  0  0  0  0  0  0  0  0  0
    2.8167   -3.7917    0.0000 O   0  5  0  0  0  0  0  0  0  0  0  0
    3.5375   -5.0250    0.0000 O   0  0  0  0  0  0  0  0  0  0  0  0
    8.6292   -4.1792    0.0000 C   0  0  0  0  0  0  0  0  0  0  0  0
    8.2167   -4.8917    0.0000 C   0  0  0  0  0  0  0  0  0  0  0  0
    6.3875   -5.0167    0.0000 O   0  0  0  0  0  0  0  0  0  0  0  0
    5.6750   -2.9542    0.0000 C   0  0  0  0  0  0  0  0  0  0  0  0
    4.9625   -2.5417    0.0000 C   0  0  0  0  0  0  0  0  0  0  0  0
    3.5292   -2.5417    0.0000 Cl  0  0  0  0  0  0  0  0  0  0  0  0
  2  1  1  0  0  0  0
  3  5  1  0  0  0  0
  4  2  2  0  0  0  0
  5  4  1  0  0  0  0
  6  3  1  0  0  0  0
  7  6  1  0  0  0  0
  8  2  1  0  0  0  0
  9  1  1  0  0  0  0
 10  1  2  0  0  0  0
 11  7  1  0  0  0  0
 12  7  1  0  0  0  0
 13  3  2  0  0  0  0
 14 15  1  0  0  0  0
 15  8  2  0  0  0  0
 16  8  1  0  0  0  0
  5 14  2  0  0  0  0
 11 12  1  0  0  0  0
M  CHG  2   1   1   9  -1
M  END
>  <ID> (6421175)
6421175

>  <Supplier> (6421175)
ChemBridge

>  <clogP> (6421175)
1.960000000000000e+000

>  <RB> (6421175)
2

>  <tPSA> (6421175)
7.224000000000000e+001

>  <Hacc> (6421175)
3

>  <Hdon> (6421175)
1

>  <LogSw> (6421175)
-3.020000000000000e+000

>  <Group> (6421175)
2

$$$$
5629903
  -ISIS-  03310818222D

 30 33  0  0  0  0  0  0  0  0999 V2000
    0.0292    0.4500    0.0000 C   0  0  0  0  0  0  0  0  0  0  0  0
    1.0167    1.6958    0.0000 C   0  0  0  0  0  0  0  0  0  0  0  0
   -0.6458   -0.8792    0.0000 N   0  0  0  0  0  0  0  0  0  0  0  0
    0.1542    1.3625    0.0000 C   0  0  3  0  0  0  0  0  0  0  0  0
   -0.7708    0.0500    0.0000 C   0  0  0  0  0  0  0  0  0  0  0  0
    0.2542   -1.0500    0.0000 N   0  0  3  0  0  0  0  0  0  0  0  0
    0.7000   -0.1792    0.0000 C   0  0  0  0  0  0  0  0  0  0  0  0
    1.1542    2.6000    0.0000 C   0  0  0  0  0  0  0  0  0  0  0  0
   -0.4000    2.8458    0.0000 C   0  0  0  0  0  0  0  0  0  0  0  0
    0.4500    3.1833    0.0000 N   0  0  0  0  0  0  0  0  0  0  0  0
   -0.5500    1.9208    0.0000 N   0  0  0  0  0  0  0  0  0  0  0  0
    1.7292    1.1125    0.0000 C   0  0  0  0  0  0  0  0  0  0  0  0
   -1.1125    3.4208    0.0000 S   0  0  0  0  0  0  0  0  0  0  0  0
    0.6500   -1.8542    0.0000 C   0  0  0  0  0  0  0  0  0  0  0  0
   -1.5708    0.5208    0.0000 C   0  0  0  0  0  0  0  0  0  0  0  0
    2.6000    1.4333    0.0000 O   0  0  0  0  0  0  0  0  0  0  0  0
    1.5792    0.2125    0.0000 O   0  0  0  0  0  0  0  0  0  0  0  0
    2.0167    2.9458    0.0000 C   0  0  0  0  0  0  0  0  0  0  0  0
    0.1042   -2.6167    0.0000 C   0  0  0  0  0  0  0  0  0  0  0  0
    1.5792   -1.9500    0.0000 C   0  0  0  0  0  0  0  0  0  0  0  0
   -1.5708    1.4625    0.0000 C   0  0  0  0  0  0  0  0  0  0  0  0
   -2.3833    0.0500    0.0000 C   0  0  0  0  0  0  0  0  0  0  0  0
    2.3000   -0.3542    0.0000 C   0  0  0  0  0  0  0  0  0  0  0  0
    3.1500   -0.0500    0.0000 C   0  0  0  0  0  0  0  0  0  0  0  0
   -2.3833    1.9125    0.0000 C   0  0  0  0  0  0  0  0  0  0  0  0
    0.5042   -3.4667    0.0000 C   0  0  0  0  0  0  0  0  0  0  0  0
    1.9792   -2.8000    0.0000 C   0  0  0  0  0  0  0  0  0  0  0  0
   -3.1833    0.5208    0.0000 C   0  0  0  0  0  0  0  0  0  0  0  0
    1.4292   -3.5542    0.0000 C   0  0  0  0  0  0  0  0  0  0  0  0
   -3.1833    1.4625    0.0000 C   0  0  0  0  0  0  0  0  0  0  0  0
  2  4  1  0  0  0  0
  3  5  2  0  0  0  0
  4  1  1  0  0  0  0
  5  1  1  0  0  0  0
  6  7  1  0  0  0  0
  7  1  2  0  0  0  0
  8  2  2  0  0  0  0
  9 11  1  0  0  0  0
 10  9  1  0  0  0  0
 11  4  1  0  0  0  0
 12  2  1  0  0  0  0
 13  9  2  0  0  0  0
 14  6  1  0  0  0  0
 15  5  1  0  0  0  0
 16 12  2  0  0  0  0
 17 12  1  0  0  0  0
 18  8  1  0  0  0  0
 19 14  2  0  0  0  0
 20 14  1  0  0  0  0
 21 15  2  0  0  0  0
 22 15  1  0  0  0  0
 23 17  1  0  0  0  0
 24 23  1  0  0  0  0
 25 21  1  0  0  0  0
 26 19  1  0  0  0  0
 27 20  2  0  0  0  0
 28 22  2  0  0  0  0
 29 27  1  0  0  0  0
 30 28  1  0  0  0  0
  3  6  1  0  0  0  0
  8 10  1  0  0  0  0
 25 30  2  0  0  0  0
 26 29  2  0  0  0  0
M  END
>  <ID> (5629903)
5629903

>  <Supplier> (5629903)
ChemBridge

>  <clogP> (5629903)
5.790000000000000e+000

>  <RB> (5629903)
4

>  <tPSA> (5629903)
6.818000000000001e+001

>  <Hacc> (5629903)
4

>  <Hdon> (5629903)
2

>  <LogSw> (5629903)
-6.186999999999999e+000

>  <Group> (5629903)
3

>  <Core> (5629903)
072

$$$$
6421170
  -ISIS-  03310818232D

 20 21  0  0  0  0  0  0  0  0999 V2000
   -3.2333   -2.2792    0.0000 N   0  3  0  0  0  0  0  0  0  0  0  0
   -0.1125    0.3958    0.0000 C   0  0  0  0  0  0  0  0  0  0  0  0
   -2.4333   -1.8542    0.0000 C   0  0  0  0  0  0  0  0  0  0  0  0
   -3.9958   -1.8292    0.0000 O   0  5  0  0  0  0  0  0  0  0  0  0
   -0.1125   -0.5042    0.0000 N   0  0  0  0  0  0  0  0  0  0  0  0
   -3.2708   -3.1792    0.0000 O   0  0  0  0  0  0  0  0  0  0  0  0
    0.6667    0.8458    0.0000 S   0  0  0  0  0  0  0  0  0  0  0  0
   -0.8708    0.8458    0.0000 N   0  0  0  0  0  0  0  0  0  0  0  0
   -3.9583    1.7125    0.0000 N   0  0  0  0  0  0  0  0  0  0  0  0
   -2.4333   -0.9542    0.0000 C   0  0  0  0  0  0  0  0  0  0  0  0
   -1.6708   -2.3042    0.0000 C   0  0  0  0  0  0  0  0  0  0  0  0
   -0.8958   -0.9542    0.0000 C   0  0  0  0  0  0  0  0  0  0  0  0
   -1.6500    0.3958    0.0000 C   0  0  0  0  0  0  0  0  0  0  0  0
   -0.8958   -1.8542    0.0000 C   0  0  0  0  0  0  0  0  0  0  0  0
   -1.6500   -0.5375    0.0000 C   0  0  0  0  0  0  0  0  0  0  0  0
   -2.4125    0.8125    0.0000 C   0  0  0  0  0  0  0  0  0  0  0  0
   -3.1958    2.1625    0.0000 C   0  0  0  0  0  0  0  0  0  0  0  0
   -3.9583    0.8458    0.0000 C   0  0  0  0  0  0  0  0  0  0  0  0
   -2.4125    1.7125    0.0000 C   0  0  0  0  0  0  0  0  0  0  0  0
   -3.1708    0.3958    0.0000 C   0  0  0  0  0  0  0  0  0  0  0  0
  2  5  1  0  0  0  0
  3  1  1  0  0  0  0
  4  1  1  0  0  0  0
  5 12  1  0  0  0  0
  6  1  2  0  0  0  0
  7  2  2  0  0  0  0
  8  2  1  0  0  0  0
  9 18  2  0  0  0  0
 10  3  1  0  0  0  0
 11  3  2  0  0  0  0
 12 14  2  0  0  0  0
 13  8  1  0  0  0  0
 14 11  1  0  0  0  0
 15 10  2  0  0  0  0
 16 13  1  0  0  0  0
 17 19  2  0  0  0  0
 18 20  1  0  0  0  0
 19 16  1  0  0  0  0
 20 16  2  0  0  0  0
 12 15  1  0  0  0  0
  9 17  1  0  0  0  0
M  CHG  2   1   1   4  -1
M  END
>  <ID> (6421170)
6421170

>  <Supplier> (6421170)
ChemBridge

>  <clogP> (6421170)
1.540000000000000e+000

>  <RB> (6421170)
3

>  <tPSA> (6421170)
8.009000000000000e+001

>  <Hacc> (6421170)
3

>  <Hdon> (6421170)
2

>  <LogSw> (6421170)
-7.000000000000000e-001

>  <Group> (6421170)
3

$$$$
5781468
  -ISIS-  03310818222D

 29 32  0  0  0  0  0  0  0  0999 V2000
    0.1750   -3.1167    0.0000 C   0  0  0  0  0  0  0  0  0  0  0  0
    0.0125   -3.8792    0.0000 N   0  0  0  0  0  0  0  0  0  0  0  0
   -0.5083   -2.7250    0.0000 C   0  0  0  0  0  0  0  0  0  0  0  0
   -3.0958   -3.7167    0.0000 N   0  3  0  0  0  0  0  0  0  0  0  0
   -1.0833   -3.2500    0.0000 C   0  0  0  0  0  0  0  0  0  0  0  0
   -0.7708   -3.9667    0.0000 C   0  0  0  0  0  0  0  0  0  0  0  0
   -1.8583   -3.1667    0.0000 C   0  0  0  0  0  0  0  0  0  0  0  0
   -2.3208   -3.7917    0.0000 C   0  0  0  0  0  0  0  0  0  0  0  0
    0.8500   -2.7167    0.0000 C   0  0  3  0  0  0  0  0  0  0  0  0
    1.5292   -3.1125    0.0000 N   0  0  0  0  0  0  0  0  0  0  0  0
   -3.4125   -3.0042    0.0000 O   0  5  0  0  0  0  0  0  0  0  0  0
   -3.5583   -4.3500    0.0000 O   0  0  0  0  0  0  0  0  0  0  0  0
   -1.2250   -4.5917    0.0000 C   0  0  0  0  0  0  0  0  0  0  0  0
   -2.0000   -4.5042    0.0000 C   0  0  0  0  0  0  0  0  0  0  0  0
   -0.5083   -1.9375    0.0000 C   0  0  0  0  0  0  0  0  0  0  0  0
    4.2792   -3.1000    0.0000 C   0  0  0  0  0  0  0  0  0  0  0  0
    5.6292   -3.9167    0.0000 C   0  0  0  0  0  0  0  0  0  0  0  0
    2.2417   -2.7000    0.0000 C   0  0  3  0  0  0  0  0  0  0  0  0
    3.6042   -2.7042    0.0000 C   0  0  0  0  0  0  0  0  0  0  0  0
    4.9667   -2.7042    0.0000 C   0  0  0  0  0  0  0  0  0  0  0  0
    4.2750   -3.9042    0.0000 C   0  0  0  0  0  0  0  0  0  0  0  0
    4.9542   -4.3042    0.0000 C   0  0  0  0  0  0  0  0  0  0  0  0
    5.6417   -3.1167    0.0000 C   0  0  0  0  0  0  0  0  0  0  0  0
    2.9250   -3.1000    0.0000 C   0  0  0  0  0  0  0  0  0  0  0  0
    0.8500   -1.9375    0.0000 C   0  0  0  0  0  0  0  0  0  0  0  0
    6.3042   -4.3292    0.0000 O   0  0  0  0  0  0  0  0  0  0  0  0
    0.1750   -1.5417    0.0000 C   0  0  0  0  0  0  0  0  0  0  0  0
    6.2792   -5.1000    0.0000 C   0  0  0  0  0  0  0  0  0  0  0  0
    2.2417   -1.9167    0.0000 C   0  0  0  0  0  0  0  0  0  0  0  0
  2  1  1  0  0  0  0
  3  1  2  0  0  0  0
  4  8  1  0  0  0  0
  5  3  1  0  0  0  0
  6  2  1  0  0  0  0
  7  5  1  0  0  0  0
  8  7  2  0  0  0  0
  9  1  1  0  0  0  0
 10  9  1  0  0  0  0
 11  4  1  0  0  0  0
 12  4  2  0  0  0  0
 13  6  1  0  0  0  0
 14 13  2  0  0  0  0
 15  3  1  0  0  0  0
 16 19  1  0  0  0  0
 17 22  1  0  0  0  0
 18 10  1  0  0  0  0
 19 24  1  0  0  0  0
 20 16  2  0  0  0  0
 21 16  1  0  0  0  0
 22 21  2  0  0  0  0
 23 20  1  0  0  0  0
 24 18  1  0  0  0  0
 25  9  1  0  0  0  0
 26 17  1  0  0  0  0
 27 25  1  0  0  0  0
 28 26  1  0  0  0  0
 29 18  1  0  0  0  0
  5  6  2  0  0  0  0
 27 15  1  0  0  0  0
 14  8  1  0  0  0  0
 17 23  2  0  0  0  0
M  CHG  2   4   1  11  -1
M  END
>  <ID> (5781468)
5781468

>  <Supplier> (5781468)
ChemBridge

>  <clogP> (5781468)
5.280000000000000e+000

>  <RB> (5781468)
5

>  <tPSA> (5781468)
8.019000000000000e+001

>  <Hacc> (5781468)
4

>  <Hdon> (5781468)
2

>  <LogSw> (5781468)
-5.960000000000000e+000

>  <Group> (5781468)
3

$$$$
5781469
  -ISIS-  03310818222D

 24 28  0  0  0  0  0  0  0  0999 V2000
    0.1750   -3.1167    0.0000 C   0  0  0  0  0  0  0  0  0  0  0  0
    0.0125   -3.8792    0.0000 N   0  0  0  0  0  0  0  0  0  0  0  0
   -0.5083   -2.7250    0.0000 C   0  0  0  0  0  0  0  0  0  0  0  0
   -3.0958   -3.7167    0.0000 N   0  3  0  0  0  0  0  0  0  0  0  0
   -1.0833   -3.2500    0.0000 C   0  0  0  0  0  0  0  0  0  0  0  0
   -0.7708   -3.9667    0.0000 C   0  0  0  0  0  0  0  0  0  0  0  0
    0.8500   -2.7167    0.0000 C   0  0  3  0  0  0  0  0  0  0  0  0
   -1.8583   -3.1667    0.0000 C   0  0  0  0  0  0  0  0  0  0  0  0
    1.5292   -3.1125    0.0000 N   0  0  0  0  0  0  0  0  0  0  0  0
   -2.3208   -3.7917    0.0000 C   0  0  0  0  0  0  0  0  0  0  0  0
    2.2417   -2.7000    0.0000 C   0  0  3  0  0  0  0  0  0  0  0  0
    2.9250   -3.1000    0.0000 C   0  0  3  0  0  0  0  0  0  0  0  0
   -3.4125   -3.0042    0.0000 O   0  5  0  0  0  0  0  0  0  0  0  0
   -3.5583   -4.3500    0.0000 O   0  0  0  0  0  0  0  0  0  0  0  0
    2.2417   -1.9167    0.0000 C   0  0  0  0  0  0  0  0  0  0  0  0
   -1.2250   -4.5917    0.0000 C   0  0  0  0  0  0  0  0  0  0  0  0
    3.2750   -2.3042    0.0000 C   0  0  0  0  0  0  0  0  0  0  0  0
   -2.0000   -4.5042    0.0000 C   0  0  0  0  0  0  0  0  0  0  0  0
    2.9250   -1.5167    0.0000 C   0  0  3  0  0  0  0  0  0  0  0  0
    3.6042   -2.7042    0.0000 C   0  0  0  0  0  0  0  0  0  0  0  0
   -0.5083   -1.9375    0.0000 C   0  0  0  0  0  0  0  0  0  0  0  0
    3.6042   -1.9167    0.0000 C   0  0  0  0  0  0  0  0  0  0  0  0
    0.8500   -1.9375    0.0000 C   0  0  0  0  0  0  0  0  0  0  0  0
    0.1750   -1.5417    0.0000 C   0  0  0  0  0  0  0  0  0  0  0  0
  2  1  1  0  0  0  0
  3  1  2  0  0  0  0
  4 10  1  0  0  0  0
  5  3  1  0  0  0  0
  6  2  1  0  0  0  0
  7  1  1  0  0  0  0
  8  5  1  0  0  0  0
  9  7  1  0  0  0  0
 10  8  2  0  0  0  0
 11  9  1  0  0  0  0
 12 11  1  0  0  0  0
 13  4  1  0  0  0  0
 14  4  2  0  0  0  0
 15 11  1  0  0  0  0
 16  6  1  0  0  0  0
 17 12  1  0  0  0  0
 18 16  2  0  0  0  0
 19 15  1  0  0  0  0
 20 12  1  0  0  0  0
 21  3  1  0  0  0  0
 22 19  1  0  0  0  0
 23  7  1  0  0  0  0
 24 23  1  0  0  0  0
  5  6  2  0  0  0  0
 24 21  1  0  0  0  0
 18 10  1  0  0  0  0
 19 17  1  0  0  0  0
 20 22  1  0  0  0  0
M  CHG  2   4   1  13  -1
M  END
>  <ID> (5781469)
5781469

>  <Supplier> (5781469)
ChemBridge

>  <clogP> (5781469)
4.359999999999999e+000

>  <RB> (5781469)
2

>  <tPSA> (5781469)
7.095999999999998e+001

>  <Hacc> (5781469)
3

>  <Hdon> (5781469)
2

>  <LogSw> (5781469)
-4.678000000000000e+000

>  <Group> (5781469)
3

$$$$
5564102
  -ISIS-  03310818222D

 19 21  0  0  0  0  0  0  0  0999 V2000
   -0.5333   -0.1792    0.0000 S   0  0  3  0  0  0  0  0  0  0  0  0
    0.2042   -0.4792    0.0000 N   0  0  0  0  0  0  0  0  0  0  0  0
    0.7292    0.1458    0.0000 C   0  0  0  0  0  0  0  0  0  0  0  0
    0.3042    0.8208    0.0000 C   0  0  0  0  0  0  0  0  0  0  0  0
   -0.4958    0.6208    0.0000 C   0  0  0  0  0  0  0  0  0  0  0  0
    1.5500    0.0833    0.0000 N   0  0  0  0  0  0  0  0  0  0  0  0
   -1.3500   -0.1375    0.0000 O   0  0  0  0  0  0  0  0  0  0  0  0
   -0.5958   -1.0000    0.0000 O   0  0  0  0  0  0  0  0  0  0  0  0
    1.9875    0.7458    0.0000 C   0  0  0  0  0  0  0  0  0  0  0  0
    2.7792    0.6833    0.0000 C   0  0  0  0  0  0  0  0  0  0  0  0
    3.2500    1.3333    0.0000 C   0  0  0  0  0  0  0  0  0  0  0  0
    0.5292    1.6000    0.0000 C   0  0  0  0  0  0  0  0  0  0  0  0
   -1.0500    1.2000    0.0000 C   0  0  0  0  0  0  0  0  0  0  0  0
    4.0500    1.2500    0.0000 O   0  0  0  0  0  0  0  0  0  0  0  0
    2.0875    2.1333    0.0000 C   0  0  0  0  0  0  0  0  0  0  0  0
    1.6500    1.4708    0.0000 C   0  0  0  0  0  0  0  0  0  0  0  0
    2.9000    2.0708    0.0000 C   0  0  0  0  0  0  0  0  0  0  0  0
   -0.0500    2.1833    0.0000 C   0  0  0  0  0  0  0  0  0  0  0  0
   -0.8333    1.9625    0.0000 C   0  0  0  0  0  0  0  0  0  0  0  0
  2  1  1  0  0  0  0
  3  2  2  0  0  0  0
  4  5  2  0  0  0  0
  5  1  1  0  0  0  0
  6  3  1  0  0  0  0
  7  1  2  0  0  0  0
  8  1  2  0  0  0  0
  9  6  1  0  0  0  0
 10  9  1  0  0  0  0
 11 10  2  0  0  0  0
 12  4  1  0  0  0  0
 13  5  1  0  0  0  0
 14 11  1  0  0  0  0
 15 16  1  0  0  0  0
 16  9  2  0  0  0  0
 17 15  2  0  0  0  0
 18 19  1  0  0  0  0
 19 13  2  0  0  0  0
  4  3  1  0  0  0  0
 12 18  2  0  0  0  0
 11 17  1  0  0  0  0
M  END
>  <ID> (5564102)
5564102

>  <Supplier> (5564102)
ChemBridge

>  <clogP> (5564102)
2.930000000000000e+000

>  <RB> (5564102)
2

>  <tPSA> (5564102)
7.876000000000002e+001

>  <Hacc> (5564102)
4

>  <Hdon> (5564102)
2

>  <LogSw> (5564102)
-3.123000000000000e+000

>  <Group> (5564102)
3

>  <Core> (5564102)
446

$$$$
5781467
  -ISIS-  03310818222D

 24 27  0  0  0  0  0  0  0  0999 V2000
    0.1750   -3.1167    0.0000 C   0  0  0  0  0  0  0  0  0  0  0  0
    0.0125   -3.8792    0.0000 N   0  0  0  0  0  0  0  0  0  0  0  0
   -0.5083   -2.7250    0.0000 C   0  0  0  0  0  0  0  0  0  0  0  0
   -3.0958   -3.7167    0.0000 N   0  3  0  0  0  0  0  0  0  0  0  0
   -1.0833   -3.2500    0.0000 C   0  0  0  0  0  0  0  0  0  0  0  0
   -0.7708   -3.9667    0.0000 C   0  0  0  0  0  0  0  0  0  0  0  0
   -1.8583   -3.1667    0.0000 C   0  0  0  0  0  0  0  0  0  0  0  0
   -2.3208   -3.7917    0.0000 C   0  0  0  0  0  0  0  0  0  0  0  0
    0.8500   -2.7167    0.0000 C   0  0  3  0  0  0  0  0  0  0  0  0
    1.5292   -3.1125    0.0000 N   0  0  0  0  0  0  0  0  0  0  0  0
   -3.4125   -3.0042    0.0000 O   0  5  0  0  0  0  0  0  0  0  0  0
   -3.5583   -4.3500    0.0000 O   0  0  0  0  0  0  0  0  0  0  0  0
   -1.2250   -4.5917    0.0000 C   0  0  0  0  0  0  0  0  0  0  0  0
   -2.0000   -4.5042    0.0000 C   0  0  0  0  0  0  0  0  0  0  0  0
   -0.5083   -1.9375    0.0000 C   0  0  0  0  0  0  0  0  0  0  0  0
    2.2417   -2.7000    0.0000 C   0  0  3  0  0  0  0  0  0  0  0  0
    0.8500   -1.9375    0.0000 C   0  0  0  0  0  0  0  0  0  0  0  0
    0.1750   -1.5417    0.0000 C   0  0  0  0  0  0  0  0  0  0  0  0
    2.2417   -1.9167    0.0000 C   0  0  0  0  0  0  0  0  0  0  0  0
    2.8292   -3.2000    0.0000 C   0  0  0  0  0  0  0  0  0  0  0  0
    2.8792   -1.4500    0.0000 C   0  0  0  0  0  0  0  0  0  0  0  0
    3.5917   -3.0417    0.0000 C   0  0  0  0  0  0  0  0  0  0  0  0
    3.6167   -1.6167    0.0000 C   0  0  0  0  0  0  0  0  0  0  0  0
    3.9792   -2.3417    0.0000 C   0  0  0  0  0  0  0  0  0  0  0  0
  2  1  1  0  0  0  0
  3  1  2  0  0  0  0
  4  8  1  0  0  0  0
  5  3  1  0  0  0  0
  6  2  1  0  0  0  0
  7  5  1  0  0  0  0
  8  7  2  0  0  0  0
  9  1  1  0  0  0  0
 10  9  1  0  0  0  0
 11  4  1  0  0  0  0
 12  4  2  0  0  0  0
 13  6  1  0  0  0  0
 14 13  2  0  0  0  0
 15  3  1  0  0  0  0
 16 10  1  0  0  0  0
 17  9  1  0  0  0  0
 18 17  1  0  0  0  0
 19 16  1  0  0  0  0
 20 16  1  0  0  0  0
 21 19  1  0  0  0  0
 22 20  1  0  0  0  0
 23 21  1  0  0  0  0
 24 22  1  0  0  0  0
  5  6  2  0  0  0  0
 18 15  1  0  0  0  0
 14  8  1  0  0  0  0
 24 23  1  0  0  0  0
M  CHG  2   4   1  11  -1
M  END
>  <ID> (5781467)
5781467

>  <Supplier> (5781467)
ChemBridge

>  <clogP> (5781467)
5.159999999999998e+000

>  <RB> (5781467)
2

>  <tPSA> (5781467)
7.095999999999998e+001

>  <Hacc> (5781467)
3

>  <Hdon> (5781467)
2

>  <LogSw> (5781467)
-5.376000000000000e+000

>  <Group> (5781467)
1

$$$$
5781464
  -ISIS-  03310818222D

 30 34  0  0  0  0  0  0  0  0999 V2000
    0.1750   -3.1167    0.0000 C   0  0  0  0  0  0  0  0  0  0  0  0
    0.0125   -3.8792    0.0000 N   0  0  0  0  0  0  0  0  0  0  0  0
   -0.5083   -2.7250    0.0000 C   0  0  0  0  0  0  0  0  0  0  0  0
   -3.0958   -3.7167    0.0000 N   0  3  0  0  0  0  0  0  0  0  0  0
   -1.0833   -3.2500    0.0000 C   0  0  0  0  0  0  0  0  0  0  0  0
   -0.7708   -3.9667    0.0000 C   0  0  0  0  0  0  0  0  0  0  0  0
   -1.8583   -3.1667    0.0000 C   0  0  0  0  0  0  0  0  0  0  0  0
   -2.3208   -3.7917    0.0000 C   0  0  0  0  0  0  0  0  0  0  0  0
    0.8500   -2.7167    0.0000 C   0  0  3  0  0  0  0  0  0  0  0  0
    3.6042   -1.9167    0.0000 N   0  0  3  0  0  0  0  0  0  0  0  0
    1.5292   -3.1125    0.0000 N   0  0  0  0  0  0  0  0  0  0  0  0
   -3.4125   -3.0042    0.0000 O   0  5  0  0  0  0  0  0  0  0  0  0
   -3.5583   -4.3500    0.0000 O   0  0  0  0  0  0  0  0  0  0  0  0
   -1.2250   -4.5917    0.0000 C   0  0  0  0  0  0  0  0  0  0  0  0
   -2.0000   -4.5042    0.0000 C   0  0  0  0  0  0  0  0  0  0  0  0
    2.2417   -2.7000    0.0000 C   0  0  3  0  0  0  0  0  0  0  0  0
    4.2792   -1.5167    0.0000 C   0  0  0  0  0  0  0  0  0  0  0  0
    2.9250   -3.1000    0.0000 C   0  0  0  0  0  0  0  0  0  0  0  0
    2.2417   -1.9167    0.0000 C   0  0  0  0  0  0  0  0  0  0  0  0
    2.9250   -1.5167    0.0000 C   0  0  0  0  0  0  0  0  0  0  0  0
    3.6042   -2.7042    0.0000 C   0  0  0  0  0  0  0  0  0  0  0  0
   -0.5083   -1.9375    0.0000 C   0  0  0  0  0  0  0  0  0  0  0  0
    4.9667   -1.9167    0.0000 C   0  0  0  0  0  0  0  0  0  0  0  0
    0.8500   -1.9375    0.0000 C   0  0  0  0  0  0  0  0  0  0  0  0
    0.1750   -1.5417    0.0000 C   0  0  0  0  0  0  0  0  0  0  0  0
    4.9667   -2.7042    0.0000 C   0  0  0  0  0  0  0  0  0  0  0  0
    5.6417   -1.5292    0.0000 C   0  0  0  0  0  0  0  0  0  0  0  0
    6.3250   -1.9167    0.0000 C   0  0  0  0  0  0  0  0  0  0  0  0
    5.6417   -3.1042    0.0000 C   0  0  0  0  0  0  0  0  0  0  0  0
    6.3250   -2.7042    0.0000 C   0  0  0  0  0  0  0  0  0  0  0  0
  2  1  1  0  0  0  0
  3  1  2  0  0  0  0
  4  8  1  0  0  0  0
  5  3  1  0  0  0  0
  6  2  1  0  0  0  0
  7  5  1  0  0  0  0
  8  7  2  0  0  0  0
  9  1  1  0  0  0  0
 10 20  1  0  0  0  0
 11  9  1  0  0  0  0
 12  4  1  0  0  0  0
 13  4  2  0  0  0  0
 14  6  1  0  0  0  0
 15 14  2  0  0  0  0
 16 11  1  0  0  0  0
 17 10  1  0  0  0  0
 18 16  1  0  0  0  0
 19 16  1  0  0  0  0
 20 19  1  0  0  0  0
 21 18  1  0  0  0  0
 22  3  1  0  0  0  0
 23 17  1  0  0  0  0
 24  9  1  0  0  0  0
 25 24  1  0  0  0  0
 26 23  2  0  0  0  0
 27 23  1  0  0  0  0
 28 27  2  0  0  0  0
 29 26  1  0  0  0  0
 30 28  1  0  0  0  0
  5  6  2  0  0  0  0
 25 22  1  0  0  0  0
 15  8  1  0  0  0  0
 10 21  1  0  0  0  0
 29 30  2  0  0  0  0
M  CHG  2   4   1  12  -1
M  END
>  <ID> (5781464)
5781464

>  <Supplier> (5781464)
ChemBridge

>  <clogP> (5781464)
4.420000000000000e+000

>  <RB> (5781464)
4

>  <tPSA> (5781464)
7.420000000000000e+001

>  <Hacc> (5781464)
4

>  <Hdon> (5781464)
2

>  <LogSw> (5781464)
-5.306000000000000e+000

>  <Group> (5781464)
3

$$$$
5781465
  -ISIS-  03310818222D

 27 30  0  0  0  0  0  0  0  0999 V2000
    0.1750   -3.1167    0.0000 C   0  0  0  0  0  0  0  0  0  0  0  0
    0.0125   -3.8792    0.0000 N   0  0  0  0  0  0  0  0  0  0  0  0
   -0.5083   -2.7250    0.0000 C   0  0  0  0  0  0  0  0  0  0  0  0
   -3.0958   -3.7167    0.0000 N   0  3  0  0  0  0  0  0  0  0  0  0
   -1.0833   -3.2500    0.0000 C   0  0  0  0  0  0  0  0  0  0  0  0
   -0.7708   -3.9667    0.0000 C   0  0  0  0  0  0  0  0  0  0  0  0
   -1.8583   -3.1667    0.0000 C   0  0  0  0  0  0  0  0  0  0  0  0
   -2.3208   -3.7917    0.0000 C   0  0  0  0  0  0  0  0  0  0  0  0
    0.8500   -2.7167    0.0000 C   0  0  3  0  0  0  0  0  0  0  0  0
    1.5292   -3.1125    0.0000 N   0  0  0  0  0  0  0  0  0  0  0  0
   -3.4125   -3.0042    0.0000 O   0  5  0  0  0  0  0  0  0  0  0  0
   -3.5583   -4.3500    0.0000 O   0  0  0  0  0  0  0  0  0  0  0  0
    4.2792   -1.5292    0.0000 C   0  0  3  0  0  0  0  0  0  0  0  0
   -1.2250   -4.5917    0.0000 C   0  0  0  0  0  0  0  0  0  0  0  0
    3.6042   -1.9167    0.0000 C   0  0  3  0  0  0  0  0  0  0  0  0
   -2.0000   -4.5042    0.0000 C   0  0  0  0  0  0  0  0  0  0  0  0
    2.9250   -1.5167    0.0000 C   0  0  0  0  0  0  0  0  0  0  0  0
    3.6042   -2.7042    0.0000 C   0  0  0  0  0  0  0  0  0  0  0  0
    2.2417   -2.7000    0.0000 C   0  0  3  0  0  0  0  0  0  0  0  0
   -0.5083   -1.9375    0.0000 C   0  0  0  0  0  0  0  0  0  0  0  0
    2.2417   -1.9167    0.0000 C   0  0  0  0  0  0  0  0  0  0  0  0
    2.9250   -3.1000    0.0000 C   0  0  0  0  0  0  0  0  0  0  0  0
    0.8500   -1.9375    0.0000 C   0  0  0  0  0  0  0  0  0  0  0  0
    0.1750   -1.5417    0.0000 C   0  0  0  0  0  0  0  0  0  0  0  0
    4.6750   -2.2042    0.0000 C   0  0  0  0  0  0  0  0  0  0  0  0
    4.9542   -1.1500    0.0000 C   0  0  0  0  0  0  0  0  0  0  0  0
    3.8917   -0.8500    0.0000 C   0  0  0  0  0  0  0  0  0  0  0  0
  2  1  1  0  0  0  0
  3  1  2  0  0  0  0
  4  8  1  0  0  0  0
  5  3  1  0  0  0  0
  6  2  1  0  0  0  0
  7  5  1  0  0  0  0
  8  7  2  0  0  0  0
  9  1  1  0  0  0  0
 10  9  1  0  0  0  0
 11  4  1  0  0  0  0
 12  4  2  0  0  0  0
 13 15  1  0  0  0  0
 14  6  1  0  0  0  0
 15 18  1  0  0  0  0
 16 14  2  0  0  0  0
 17 21  1  0  0  0  0
 18 22  1  0  0  0  0
 19 10  1  0  0  0  0
 20  3  1  0  0  0  0
 21 19  1  0  0  0  0
 22 19  1  0  0  0  0
 23  9  1  0  0  0  0
 24 23  1  0  0  0  0
 25 13  1  0  0  0  0
 26 13  1  0  0  0  0
 27 13  1  0  0  0  0
  5  6  2  0  0  0  0
 24 20  1  0  0  0  0
 16  8  1  0  0  0  0
 15 17  1  0  0  0  0
M  CHG  2   4   1  11  -1
M  END
>  <ID> (5781465)
5781465

>  <Supplier> (5781465)
ChemBridge

>  <clogP> (5781465)
6.450000000000000e+000

>  <RB> (5781465)
3

>  <tPSA> (5781465)
7.095999999999998e+001

>  <Hacc> (5781465)
3

>  <Hdon> (5781465)
2

>  <LogSw> (5781465)
-6.784000000000000e+000

>  <Group> (5781465)
1

$$$$
5564106
  -ISIS-  03310818222D

 21 22  0  0  0  0  0  0  0  0999 V2000
    1.9042    0.6708    0.0000 C   0  0  0  0  0  0  0  0  0  0  0  0
    2.4417    0.0708    0.0000 S   0  0  0  0  0  0  0  0  0  0  0  0
    2.3042    1.3500    0.0000 N   0  0  0  0  0  0  0  0  0  0  0  0
    3.1667    0.4125    0.0000 C   0  0  0  0  0  0  0  0  0  0  0  0
    3.0875    1.1958    0.0000 N   0  0  0  0  0  0  0  0  0  0  0  0
    1.1042    0.6708    0.0000 N   0  0  0  0  0  0  0  0  0  0  0  0
    0.7042   -0.0292    0.0000 C   0  0  0  0  0  0  0  0  0  0  0  0
   -1.6958   -1.4042    0.0000 C   0  0  0  0  0  0  0  0  0  0  0  0
   -2.4958   -1.4042    0.0000 C   0  0  0  0  0  0  0  0  0  0  0  0
   -1.2958   -0.7292    0.0000 C   0  0  0  0  0  0  0  0  0  0  0  0
   -0.4958   -0.7292    0.0000 O   0  0  0  0  0  0  0  0  0  0  0  0
    1.1042   -0.7292    0.0000 O   0  0  0  0  0  0  0  0  0  0  0  0
    3.8875    0.0125    0.0000 S   0  0  0  0  0  0  0  0  0  0  0  0
   -1.6958   -0.0292    0.0000 C   0  0  0  0  0  0  0  0  0  0  0  0
   -2.8958   -0.7292    0.0000 C   0  0  0  0  0  0  0  0  0  0  0  0
   -0.0958   -0.0292    0.0000 C   0  0  0  0  0  0  0  0  0  0  0  0
   -1.2958   -2.1042    0.0000 Cl  0  0  0  0  0  0  0  0  0  0  0  0
   -2.4958   -0.0042    0.0000 C   0  0  0  0  0  0  0  0  0  0  0  0
   -3.6958   -0.7500    0.0000 Cl  0  0  0  0  0  0  0  0  0  0  0  0
    3.9042   -0.7875    0.0000 C   0  0  0  0  0  0  0  0  0  0  0  0
    4.6042   -1.1875    0.0000 C   0  0  0  0  0  0  0  0  0  0  0  0
  2  1  1  0  0  0  0
  3  1  2  0  0  0  0
  4  2  1  0  0  0  0
  5  3  1  0  0  0  0
  6  1  1  0  0  0  0
  7  6  1  0  0  0  0
  8 10  1  0  0  0  0
  9  8  2  0  0  0  0
 10 11  1  0  0  0  0
 11 16  1  0  0  0  0
 12  7  2  0  0  0  0
 13  4  1  0  0  0  0
 14 10  2  0  0  0  0
 15 18  2  0  0  0  0
 16  7  1  0  0  0  0
 17  8  1  0  0  0  0
 18 14  1  0  0  0  0
 19 15  1  0  0  0  0
 20 13  1  0  0  0  0
 21 20  1  0  0  0  0
  4  5  2  0  0  0  0
  9 15  1  0  0  0  0
M  END
>  <ID> (5564106)
5564106

>  <Supplier> (5564106)
ChemBridge

>  <clogP> (5564106)
3.440000000000000e+000

>  <RB> (5564106)
5

>  <tPSA> (5564106)
6.411000000000000e+001

>  <Hacc> (5564106)
4

>  <Hdon> (5564106)
1

>  <LogSw> (5564106)
-4.794000000000000e+000

>  <Group> (5564106)
1

>  <Core> (5564106)
034

$$$$
5781463
  -ISIS-  03310818222D

 27 30  0  0  0  0  0  0  0  0999 V2000
    0.1750   -3.1167    0.0000 C   0  0  0  0  0  0  0  0  0  0  0  0
    0.0125   -3.8792    0.0000 N   0  0  0  0  0  0  0  0  0  0  0  0
   -0.5083   -2.7250    0.0000 C   0  0  0  0  0  0  0  0  0  0  0  0
   -3.0958   -3.7167    0.0000 N   0  3  0  0  0  0  0  0  0  0  0  0
   -1.0833   -3.2500    0.0000 C   0  0  0  0  0  0  0  0  0  0  0  0
   -0.7708   -3.9667    0.0000 C   0  0  0  0  0  0  0  0  0  0  0  0
   -1.8583   -3.1667    0.0000 C   0  0  0  0  0  0  0  0  0  0  0  0
   -2.3208   -3.7917    0.0000 C   0  0  0  0  0  0  0  0  0  0  0  0
    0.8500   -2.7167    0.0000 C   0  0  3  0  0  0  0  0  0  0  0  0
    1.5292   -3.1125    0.0000 N   0  0  0  0  0  0  0  0  0  0  0  0
   -3.4125   -3.0042    0.0000 O   0  5  0  0  0  0  0  0  0  0  0  0
   -3.5583   -4.3500    0.0000 O   0  0  0  0  0  0  0  0  0  0  0  0
   -1.2250   -4.5917    0.0000 C   0  0  0  0  0  0  0  0  0  0  0  0
   -2.0000   -4.5042    0.0000 C   0  0  0  0  0  0  0  0  0  0  0  0
   -0.5083   -1.9375    0.0000 C   0  0  0  0  0  0  0  0  0  0  0  0
    2.2417   -2.7000    0.0000 C   0  0  3  0  0  0  0  0  0  0  0  0
    3.6042   -2.7042    0.0000 C   0  0  0  0  0  0  0  0  0  0  0  0
    2.9250   -3.1000    0.0000 C   0  0  0  0  0  0  0  0  0  0  0  0
    4.2792   -3.1000    0.0000 C   0  0  0  0  0  0  0  0  0  0  0  0
    0.8500   -1.9375    0.0000 C   0  0  0  0  0  0  0  0  0  0  0  0
    0.1750   -1.5417    0.0000 C   0  0  0  0  0  0  0  0  0  0  0  0
    4.9667   -2.7042    0.0000 C   0  0  0  0  0  0  0  0  0  0  0  0
    4.2750   -3.9042    0.0000 C   0  0  0  0  0  0  0  0  0  0  0  0
    2.2417   -1.9167    0.0000 C   0  0  0  0  0  0  0  0  0  0  0  0
    4.9542   -4.3042    0.0000 C   0  0  0  0  0  0  0  0  0  0  0  0
    5.6417   -3.1167    0.0000 C   0  0  0  0  0  0  0  0  0  0  0  0
    5.6292   -3.9167    0.0000 C   0  0  0  0  0  0  0  0  0  0  0  0
  2  1  1  0  0  0  0
  3  1  2  0  0  0  0
  4  8  1  0  0  0  0
  5  3  1  0  0  0  0
  6  2  1  0  0  0  0
  7  5  1  0  0  0  0
  8  7  2  0  0  0  0
  9  1  1  0  0  0  0
 10  9  1  0  0  0  0
 11  4  1  0  0  0  0
 12  4  2  0  0  0  0
 13  6  1  0  0  0  0
 14 13  2  0  0  0  0
 15  3  1  0  0  0  0
 16 10  1  0  0  0  0
 17 18  1  0  0  0  0
 18 16  1  0  0  0  0
 19 17  1  0  0  0  0
 20  9  1  0  0  0  0
 21 20  1  0  0  0  0
 22 19  2  0  0  0  0
 23 19  1  0  0  0  0
 24 16  1  0  0  0  0
 25 23  2  0  0  0  0
 26 22  1  0  0  0  0
 27 25  1  0  0  0  0
  5  6  2  0  0  0  0
 21 15  1  0  0  0  0
 14  8  1  0  0  0  0
 26 27  2  0  0  0  0
M  CHG  2   4   1  11  -1
M  END
>  <ID> (5781463)
5781463

>  <Supplier> (5781463)
ChemBridge

>  <clogP> (5781463)
5.359999999999999e+000

>  <RB> (5781463)
5

>  <tPSA> (5781463)
7.095999999999998e+001

>  <Hacc> (5781463)
3

>  <Hdon> (5781463)
2

>  <LogSw> (5781463)
-5.809000000000000e+000

>  <Group> (5781463)
1

$$$$
5564104
  -ISIS-  03310818222D

 31 34  0  0  0  0  0  0  0  0999 V2000
   -0.5333   -0.5542    0.0000 N   0  0  3  0  0  0  0  0  0  0  0  0
   -0.8958   -1.1292    0.0000 C   0  0  0  0  0  0  0  0  0  0  0  0
    0.4375   -1.1667    0.0000 C   0  0  0  0  0  0  0  0  0  0  0  0
   -0.9625   -0.0667    0.0000 C   0  0  0  0  0  0  0  0  0  0  0  0
   -0.5625   -1.7292    0.0000 N   0  0  0  0  0  0  0  0  0  0  0  0
    0.1292   -0.5875    0.0000 C   0  0  3  0  0  0  0  0  0  0  0  0
   -1.5833   -0.3292    0.0000 C   0  0  0  0  0  0  0  0  0  0  0  0
    0.0792   -1.7500    0.0000 C   0  0  0  0  0  0  0  0  0  0  0  0
   -1.5333   -0.9667    0.0000 S   0  0  0  0  0  0  0  0  0  0  0  0
   -2.1708    0.0125    0.0000 C   0  0  0  0  0  0  0  0  0  0  0  0
    1.1042   -1.1792    0.0000 C   0  0  0  0  0  0  0  0  0  0  0  0
   -2.7458   -0.3167    0.0000 C   0  0  0  0  0  0  0  0  0  0  0  0
    0.4792   -0.0292    0.0000 C   0  0  0  0  0  0  0  0  0  0  0  0
   -0.8208    0.5958    0.0000 O   0  0  0  0  0  0  0  0  0  0  0  0
    1.4500   -0.5875    0.0000 O   0  0  0  0  0  0  0  0  0  0  0  0
   -3.3125    0.0125    0.0000 C   0  0  0  0  0  0  0  0  0  0  0  0
    0.1792    0.5625    0.0000 C   0  0  0  0  0  0  0  0  0  0  0  0
    1.1375   -0.0667    0.0000 C   0  0  0  0  0  0  0  0  0  0  0  0
    1.4375   -1.7500    0.0000 O   0  0  0  0  0  0  0  0  0  0  0  0
    0.4000   -2.3500    0.0000 C   0  0  0  0  0  0  0  0  0  0  0  0
    1.2042    1.0833    0.0000 C   0  0  0  0  0  0  0  0  0  0  0  0
   -3.2958    0.6708    0.0000 F   0  0  0  0  0  0  0  0  0  0  0  0
    1.5042    0.4833    0.0000 C   0  0  0  0  0  0  0  0  0  0  0  0
    0.5375    1.1125    0.0000 C   0  0  0  0  0  0  0  0  0  0  0  0
    1.5667    1.6458    0.0000 Cl  0  0  0  0  0  0  0  0  0  0  0  0
   -2.7458   -0.9875    0.0000 C   0  0  0  0  0  0  0  0  0  0  0  0
   -3.9000   -0.3167    0.0000 C   0  0  0  0  0  0  0  0  0  0  0  0
    2.1000   -1.7375    0.0000 C   0  0  0  0  0  0  0  0  0  0  0  0
    2.4167   -1.1667    0.0000 C   0  0  0  0  0  0  0  0  0  0  0  0
   -3.3208   -1.3167    0.0000 C   0  0  0  0  0  0  0  0  0  0  0  0
   -3.9000   -0.9792    0.0000 C   0  0  0  0  0  0  0  0  0  0  0  0
  2  1  1  0  0  0  0
  3  6  1  0  0  0  0
  4  1  1  0  0  0  0
  5  2  2  0  0  0  0
  6  1  1  0  0  0  0
  7  4  1  0  0  0  0
  8  3  2  0  0  0  0
  9  2  1  0  0  0  0
 10  7  2  0  0  0  0
 11  3  1  0  0  0  0
 12 10  1  0  0  0  0
 13  6  1  0  0  0  0
 14  4  2  0  0  0  0
 15 11  2  0  0  0  0
 16 12  1  0  0  0  0
 17 13  2  0  0  0  0
 18 13  1  0  0  0  0
 19 11  1  0  0  0  0
 20  8  1  0  0  0  0
 21 23  1  0  0  0  0
 22 16  1  0  0  0  0
 23 18  2  0  0  0  0
 24 17  1  0  0  0  0
 25 21  1  0  0  0  0
 26 12  2  0  0  0  0
 27 16  2  0  0  0  0
 28 19  1  0  0  0  0
 29 28  1  0  0  0  0
 30 26  1  0  0  0  0
 31 30  2  0  0  0  0
  9  7  1  0  0  0  0
  5  8  1  0  0  0  0
 21 24  2  0  0  0  0
 27 31  1  0  0  0  0
M  END
>  <ID> (5564104)
5564104

>  <Supplier> (5564104)
ChemBridge

>  <clogP> (5564104)
6.580000000000000e+000

>  <RB> (5564104)
3

>  <tPSA> (5564104)
6.066000000000000e+001

>  <Hacc> (5564104)
4

>  <Hdon> (5564104)
0

>  <LogSw> (5564104)
-8.150000000000000e+000

>  <Group> (5564104)
1

>  <Core> (5564104)
096

$$$$
5564105
  -ISIS-  03310818222D

 19 20  0  0  0  0  0  0  0  0999 V2000
    1.1000    0.4958    0.0000 C   0  0  0  0  0  0  0  0  0  0  0  0
    0.2792    0.8125    0.0000 N   0  0  0  0  0  0  0  0  0  0  0  0
   -0.3833    0.2500    0.0000 C   0  0  0  0  0  0  0  0  0  0  0  0
    1.2375   -0.3500    0.0000 C   0  0  0  0  0  0  0  0  0  0  0  0
    1.7375    1.0333    0.0000 C   0  0  0  0  0  0  0  0  0  0  0  0
   -0.2458   -0.5875    0.0000 O   0  0  0  0  0  0  0  0  0  0  0  0
    2.0375   -0.6500    0.0000 C   0  0  0  0  0  0  0  0  0  0  0  0
   -1.1625    0.5500    0.0000 C   0  0  0  0  0  0  0  0  0  0  0  0
    2.5542    0.7333    0.0000 C   0  0  0  0  0  0  0  0  0  0  0  0
    2.7000   -0.0875    0.0000 C   0  0  0  0  0  0  0  0  0  0  0  0
   -1.8208    0.0125    0.0000 C   0  0  0  0  0  0  0  0  0  0  0  0
   -2.6208    0.3125    0.0000 C   0  0  0  0  0  0  0  0  0  0  0  0
    0.5542   -0.9042    0.0000 C   0  0  0  0  0  0  0  0  0  0  0  0
    3.2167    1.2958    0.0000 C   0  0  0  0  0  0  0  0  0  0  0  0
   -3.2833   -0.2500    0.0000 C   0  0  0  0  0  0  0  0  0  0  0  0
   -2.7833    1.1333    0.0000 C   0  0  0  0  0  0  0  0  0  0  0  0
   -3.5625    1.4333    0.0000 C   0  0  0  0  0  0  0  0  0  0  0  0
   -4.0625    0.0500    0.0000 C   0  0  0  0  0  0  0  0  0  0  0  0
   -4.2208    0.8958    0.0000 C   0  0  0  0  0  0  0  0  0  0  0  0
  2  1  1  0  0  0  0
  3  2  1  0  0  0  0
  4  1  1  0  0  0  0
  5  1  2  0  0  0  0
  6  3  2  0  0  0  0
  7  4  2  0  0  0  0
  8  3  1  0  0  0  0
  9  5  1  0  0  0  0
 10  9  2  0  0  0  0
 11  8  1  0  0  0  0
 12 11  1  0  0  0  0
 13  4  1  0  0  0  0
 14  9  1  0  0  0  0
 15 12  1  0  0  0  0
 16 12  2  0  0  0  0
 17 16  1  0  0  0  0
 18 15  2  0  0  0  0
 19 17  2  0  0  0  0
  7 10  1  0  0  0  0
 19 18  1  0  0  0  0
M  END
>  <ID> (5564105)
5564105

>  <Supplier> (5564105)
ChemBridge

>  <clogP> (5564105)
3.600000000000000e+000

>  <RB> (5564105)
4

>  <tPSA> (5564105)
2.910000000000000e+001

>  <Hacc> (5564105)
1

>  <Hdon> (5564105)
1

>  <LogSw> (5564105)
-4.122999999999998e+000

>  <Group> (5564105)
1

$$$$
7805906
  -ISIS-  03310818272D

 33 36  0  0  0  0  0  0  0  0999 V2000
    4.7667   -4.4417    0.0000 C   0  0  0  0  0  0  0  0  0  0  0  0
    5.4792   -2.1792    0.0000 C   0  0  0  0  0  0  0  0  0  0  0  0
    5.4750   -4.0292    0.0000 C   0  0  3  0  0  0  0  0  0  0  0  0
    6.1917   -4.4417    0.0000 C   0  0  0  0  0  0  0  0  0  0  0  0
    4.0542   -4.0292    0.0000 C   0  0  0  0  0  0  0  0  0  0  0  0
    4.7667   -5.2667    0.0000 C   0  0  0  0  0  0  0  0  0  0  0  0
    6.1917   -5.2667    0.0000 C   0  0  0  0  0  0  0  0  0  0  0  0
    6.1917   -1.7667    0.0000 C   0  0  0  0  0  0  0  0  0  0  0  0
    3.3417   -4.4417    0.0000 C   0  0  3  0  0  0  0  0  0  0  0  0
    5.4750   -5.6792    0.0000 N   0  0  0  0  0  0  0  0  0  0  0  0
    4.7667   -1.7667    0.0000 C   0  0  0  0  0  0  0  0  0  0  0  0
    6.1917   -0.9417    0.0000 C   0  0  0  0  0  0  0  0  0  0  0  0
    3.3417   -5.2667    0.0000 C   0  0  3  0  0  0  0  0  0  0  0  0
    6.9167   -4.0292    0.0000 C   0  0  0  0  0  0  0  0  0  0  0  0
    4.7667   -0.9417    0.0000 O   0  0  0  0  0  0  0  0  0  0  0  0
    2.6292   -4.0292    0.0000 C   0  0  0  0  0  0  0  0  0  0  0  0
    4.0542   -5.6792    0.0000 C   0  0  0  0  0  0  0  0  0  0  0  0
    5.4875   -0.5292    0.0000 C   0  0  0  0  0  0  0  0  0  0  0  0
    4.0542   -3.2042    0.0000 O   0  0  0  0  0  0  0  0  0  0  0  0
    6.9125   -2.1792    0.0000 O   0  0  0  0  0  0  0  0  0  0  0  0
    6.9167   -3.2042    0.0000 O   0  0  0  0  0  0  0  0  0  0  0  0
    2.6292   -3.2042    0.0000 O   0  0  0  0  0  0  0  0  0  0  0  0
    7.6292   -4.4417    0.0000 O   0  0  0  0  0  0  0  0  0  0  0  0
    1.9167   -4.4417    0.0000 O   0  0  0  0  0  0  0  0  0  0  0  0
    6.9167   -5.6792    0.0000 C   0  0  0  0  0  0  0  0  0  0  0  0
    6.9042   -0.5417    0.0000 C   0  0  0  0  0  0  0  0  0  0  0  0
    2.6292   -5.6792    0.0000 C   0  0  0  0  0  0  0  0  0  0  0  0
    5.4875    0.2875    0.0000 C   0  0  0  0  0  0  0  0  0  0  0  0
    8.3417   -4.0167    0.0000 C   0  0  0  0  0  0  0  0  0  0  0  0
    1.2000   -4.0292    0.0000 C   0  0  0  0  0  0  0  0  0  0  0  0
    6.9125    0.2833    0.0000 C   0  0  0  0  0  0  0  0  0  0  0  0
    9.0542   -4.4292    0.0000 C   0  0  0  0  0  0  0  0  0  0  0  0
    6.2000    0.6958    0.0000 C   0  0  0  0  0  0  0  0  0  0  0  0
  2  3  1  0  0  0  0
  3  1  1  0  0  0  0
  4  3  1  0  0  0  0
  5  1  1  0  0  0  0
  6  1  2  0  0  0  0
  7 10  1  0  0  0  0
  8  2  1  0  0  0  0
  9  5  1  0  0  0  0
 10  6  1  0  0  0  0
 11  2  2  0  0  0  0
 12  8  1  0  0  0  0
 13 17  1  0  0  0  0
 14  4  1  0  0  0  0
 15 11  1  0  0  0  0
 16  9  1  0  0  0  0
 17  6  1  0  0  0  0
 18 15  1  0  0  0  0
 19  5  2  0  0  0  0
 20  8  2  0  0  0  0
 21 14  2  0  0  0  0
 22 16  2  0  0  0  0
 23 14  1  0  0  0  0
 24 16  1  0  0  0  0
 25  7  1  0  0  0  0
 26 12  1  0  0  0  0
 27 13  1  0  0  0  0
 28 18  1  0  0  0  0
 29 23  1  0  0  0  0
 30 24  1  0  0  0  0
 31 26  2  0  0  0  0
 32 29  1  0  0  0  0
 33 28  2  0  0  0  0
 13  9  1  0  0  0  0
  7  4  2  0  0  0  0
 12 18  2  0  0  0  0
 33 31  1  0  0  0  0
M  END
>  <ID> (7805906)
7805906

>  <Supplier> (7805906)
ChemBridge

>  <clogP> (7805906)
2.690000000000000e+000

>  <RB> (7805906)
3

>  <tPSA> (7805906)
1.119100000000000e+002

>  <Hacc> (7805906)
7

>  <Hdon> (7805906)
1

>  <LogSw> (7805906)
-3.780000000000000e+000

>  <Group> (7805906)
1

>  <Core> (7805906)
085

$$$$
5917767
  -ISIS-  03310818232D

 22 24  0  0  0  0  0  0  0  0999 V2000
    3.1792   -1.8667    0.0000 C   0  0  0  0  0  0  0  0  0  0  0  0
    6.9292   -1.3917    0.0000 N   0  3  0  0  0  0  0  0  0  0  0  0
    2.3542   -1.9000    0.0000 C   0  0  0  0  0  0  0  0  0  0  0  0
    3.4667   -2.6292    0.0000 C   0  0  0  0  0  0  0  0  0  0  0  0
    3.6375   -1.1792    0.0000 C   0  0  0  0  0  0  0  0  0  0  0  0
    2.8250   -3.1417    0.0000 O   0  0  0  0  0  0  0  0  0  0  0  0
    2.1292   -2.6917    0.0000 C   0  0  0  0  0  0  0  0  0  0  0  0
    6.1042   -1.3375    0.0000 C   0  0  0  0  0  0  0  0  0  0  0  0
    7.2917   -2.1292    0.0000 O   0  5  0  0  0  0  0  0  0  0  0  0
    4.4625   -1.2292    0.0000 C   0  0  0  0  0  0  0  0  0  0  0  0
    7.3792   -0.7042    0.0000 O   0  0  0  0  0  0  0  0  0  0  0  0
    1.7750   -1.3167    0.0000 C   0  0  0  0  0  0  0  0  0  0  0  0
    3.2667   -0.4417    0.0000 O   0  0  0  0  0  0  0  0  0  0  0  0
    5.7292   -0.5917    0.0000 C   0  0  0  0  0  0  0  0  0  0  0  0
    5.6417   -2.0250    0.0000 C   0  0  0  0  0  0  0  0  0  0  0  0
    4.9125   -0.5417    0.0000 C   0  0  0  0  0  0  0  0  0  0  0  0
    4.8250   -1.9750    0.0000 C   0  0  0  0  0  0  0  0  0  0  0  0
    1.3500   -2.9042    0.0000 C   0  0  0  0  0  0  0  0  0  0  0  0
    0.9792   -1.5250    0.0000 C   0  0  0  0  0  0  0  0  0  0  0  0
    0.7667   -2.3167    0.0000 C   0  0  0  0  0  0  0  0  0  0  0  0
    0.4042   -0.9375    0.0000 O   0  0  0  0  0  0  0  0  0  0  0  0
    0.6292   -0.1417    0.0000 C   0  0  0  0  0  0  0  0  0  0  0  0
  2  8  1  0  0  0  0
  3  1  1  0  0  0  0
  4  1  2  0  0  0  0
  5  1  1  0  0  0  0
  6  4  1  0  0  0  0
  7  3  2  0  0  0  0
  8 15  2  0  0  0  0
  9  2  1  0  0  0  0
 10  5  1  0  0  0  0
 11  2  2  0  0  0  0
 12  3  1  0  0  0  0
 13  5  2  0  0  0  0
 14 16  2  0  0  0  0
 15 17  1  0  0  0  0
 16 10  1  0  0  0  0
 17 10  2  0  0  0  0
 18  7  1  0  0  0  0
 19 12  2  0  0  0  0
 20 19  1  0  0  0  0
 21 19  1  0  0  0  0
 22 21  1  0  0  0  0
  6  7  1  0  0  0  0
  8 14  1  0  0  0  0
 20 18  2  0  0  0  0
M  CHG  2   2   1   9  -1
M  END
>  <ID> (5917767)
5917767

>  <Supplier> (5917767)
ChemBridge

>  <clogP> (5917767)
3.760000000000000e+000

>  <RB> (5917767)
2

>  <tPSA> (5917767)
8.258000000000001e+001

>  <Hacc> (5917767)
5

>  <Hdon> (5917767)
0

>  <LogSw> (5917767)
-4.969000000000000e+000

>  <Group> (5917767)
3

$$$$
7960883
  -ISIS-  03310818282D

 19 20  0  0  0  0  0  0  0  0999 V2000
    4.0792    1.4333    0.0000 C   0  0  0  0  0  0  0  0  0  0  0  0
    4.8292    1.4333    0.0000 N   0  0  3  0  0  0  0  0  0  0  0  0
    3.7042    0.7833    0.0000 N   0  0  0  0  0  0  0  0  0  0  0  0
    7.0792    1.4333    0.0000 C   0  0  0  0  0  0  0  0  0  0  0  0
    3.7042    2.0833    0.0000 O   0  0  0  0  0  0  0  0  0  0  0  0
    5.2042    0.7833    0.0000 C   0  0  0  0  0  0  0  0  0  0  0  0
    5.2042    2.0833    0.0000 C   0  0  0  0  0  0  0  0  0  0  0  0
    6.3292    1.4333    0.0000 C   0  0  3  0  0  0  0  0  0  0  0  0
    7.4542    0.7833    0.0000 O   0  0  0  0  0  0  0  0  0  0  0  0
    5.9542    2.0833    0.0000 C   0  0  0  0  0  0  0  0  0  0  0  0
    5.9542    0.7833    0.0000 C   0  0  0  0  0  0  0  0  0  0  0  0
    2.9542    0.7833    0.0000 C   0  0  0  0  0  0  0  0  0  0  0  0
    7.4542    2.0833    0.0000 N   0  0  0  0  0  0  0  0  0  0  0  0
    1.4542    0.7833    0.0000 C   0  0  0  0  0  0  0  0  0  0  0  0
    2.5792    0.1333    0.0000 C   0  0  0  0  0  0  0  0  0  0  0  0
    2.5792    1.4333    0.0000 C   0  0  0  0  0  0  0  0  0  0  0  0
    1.8292    1.4333    0.0000 C   0  0  0  0  0  0  0  0  0  0  0  0
    1.8292    0.1333    0.0000 C   0  0  0  0  0  0  0  0  0  0  0  0
    0.7042    0.7833    0.0000 C   0  0  0  0  0  0  0  0  0  0  0  0
  2  1  1  0  0  0  0
  3  1  1  0  0  0  0
  4  8  1  0  0  0  0
  5  1  2  0  0  0  0
  6  2  1  0  0  0  0
  7  2  1  0  0  0  0
  8 10  1  0  0  0  0
  9  4  2  0  0  0  0
 10  7  1  0  0  0  0
 11  6  1  0  0  0  0
 12  3  1  0  0  0  0
 13  4  1  0  0  0  0
 14 17  2  0  0  0  0
 15 12  1  0  0  0  0
 16 12  2  0  0  0  0
 17 16  1  0  0  0  0
 18 15  2  0  0  0  0
 19 14  1  0  0  0  0
  8 11  1  0  0  0  0
 18 14  1  0  0  0  0
M  END
>  <ID> (7960883)
7960883

>  <Supplier> (7960883)
ChemBridge

>  <clogP> (7960883)
-8.800000000000002e-002

>  <RB> (7960883)
2

>  <tPSA> (7960883)
7.543000000000001e+001

>  <Hacc> (7960883)
2

>  <Hdon> (7960883)
2

>  <LogSw> (7960883)
-2.341000000000000e+000

>  <Group> (7960883)
2

>  <Core> (7960883)
051

$$$$
6433795
  -ISIS-  03310818242D

 27 29  0  0  0  0  0  0  0  0999 V2000
   11.0167    4.7292    0.0000 N   0  3  0  0  0  0  0  0  0  0  0  0
   -8.2500   -2.0375    0.0000 C   0  0  0  0  0  0  0  0  0  0  0  0
   -4.3500    0.1958    0.0000 C   0  0  0  0  0  0  0  0  0  0  0  0
  -12.1000    0.1958    0.0000 C   0  0  0  0  0  0  0  0  0  0  0  0
   11.0167    0.1958    0.0000 C   0  0  0  0  0  0  0  0  0  0  0  0
    7.1667   -1.8792    0.0000 C   0  0  0  0  0  0  0  0  0  0  0  0
    7.1667   -6.4000    0.0000 C   0  0  0  0  0  0  0  0  0  0  0  0
   14.8375    6.9667    0.0000 O   0  5  0  0  0  0  0  0  0  0  0  0
    3.3500   -8.6292    0.0000 C   0  0  0  0  0  0  0  0  0  0  0  0
   -0.4625   -1.8792    0.0000 O   0  0  0  0  0  0  0  0  0  0  0  0
    7.1667    6.9667    0.0000 O   0  0  0  0  0  0  0  0  0  0  0  0
   -4.3500    4.7292    0.0000 O   0  0  0  0  0  0  0  0  0  0  0  0
   -0.4625   -6.4000    0.0000 C   0  0  0  0  0  0  0  0  0  0  0  0
  -12.1000    4.6167    0.0000 C   0  0  0  0  0  0  0  0  0  0  0  0
    3.3500  -13.0292    0.0000 O   0  0  0  0  0  0  0  0  0  0  0  0
   -8.2500   -6.5042    0.0000 C   0  0  0  0  0  0  0  0  0  0  0  0
  -15.9167   -2.0375    0.0000 C   0  0  0  0  0  0  0  0  0  0  0  0
   14.8375   -1.8792    0.0000 C   0  0  0  0  0  0  0  0  0  0  0  0
   11.0167   -8.6292    0.0000 C   0  0  0  0  0  0  0  0  0  0  0  0
   14.8375   -6.4000    0.0000 C   0  0  0  0  0  0  0  0  0  0  0  0
  -15.9542    6.8167    0.0000 C   0  0  0  0  0  0  0  0  0  0  0  0
   -8.2792    6.8542    0.0000 C   0  0  0  0  0  0  0  0  0  0  0  0
  -15.9167   -6.5042    0.0000 C   0  0  0  0  0  0  0  0  0  0  0  0
  -12.1000   -8.6292    0.0000 C   0  0  0  0  0  0  0  0  0  0  0  0
   -8.3167   11.3292    0.0000 C   0  0  0  0  0  0  0  0  0  0  0  0
  -16.0000   11.2875    0.0000 C   0  0  0  0  0  0  0  0  0  0  0  0
  -12.1292   13.5667    0.0000 C   0  0  0  0  0  0  0  0  0  0  0  0
  2  3  1  0  0  0  0
  3 10  1  0  0  0  0
  4  2  2  0  0  0  0
  5  1  1  0  0  0  0
  6  5  1  0  0  0  0
  7  6  2  0  0  0  0
  8  1  1  0  0  0  0
  9  7  1  0  0  0  0
 10 13  1  0  0  0  0
 11  1  2  0  0  0  0
 12  3  2  0  0  0  0
 13  9  1  0  0  0  0
 14  4  1  0  0  0  0
 15  9  2  0  0  0  0
 16  2  1  0  0  0  0
 17  4  1  0  0  0  0
 18  5  2  0  0  0  0
 19 20  2  0  0  0  0
 20 18  1  0  0  0  0
 21 14  2  0  0  0  0
 22 14  1  0  0  0  0
 23 24  1  0  0  0  0
 24 16  2  0  0  0  0
 25 22  2  0  0  0  0
 26 21  1  0  0  0  0
 27 25  1  0  0  0  0
  7 19  1  0  0  0  0
 23 17  2  0  0  0  0
 27 26  2  0  0  0  0
M  CHG  2   1   1   8  -1
M  END
>  <ID> (6433795)
6433795

>  <Supplier> (6433795)
ChemBridge

>  <clogP> (6433795)
3.960000000000000e+000

>  <RB> (6433795)
6

>  <tPSA> (6433795)
8.651000000000002e+001

>  <Hacc> (6433795)
5

>  <Hdon> (6433795)
0

>  <LogSw> (6433795)
-5.606999999999998e+000

>  <Group> (6433795)
3

>  <Core> (6433795)
217

$$$$
7805907
  -ISIS-  03310818272D

 27 28  0  0  0  0  0  0  0  0999 V2000
    8.4292   -3.2667    0.0000 C   0  0  0  0  0  0  0  0  0  0  0  0
    9.2542   -3.2667    0.0000 C   0  0  0  0  0  0  0  0  0  0  0  0
   10.9042   -3.2750    0.0000 C   0  0  0  0  0  0  0  0  0  0  0  0
   10.4917   -3.9875    0.0000 C   0  0  0  0  0  0  0  0  0  0  0  0
   10.4917   -2.5542    0.0000 C   0  0  0  0  0  0  0  0  0  0  0  0
    8.0167   -2.5625    0.0000 N   0  0  3  0  0  0  0  0  0  0  0  0
    9.6667   -3.9875    0.0000 C   0  0  0  0  0  0  0  0  0  0  0  0
    9.6667   -2.5542    0.0000 C   0  0  0  0  0  0  0  0  0  0  0  0
    4.3125   -1.8250    0.0000 C   0  0  0  0  0  0  0  0  0  0  0  0
    4.7167   -2.5417    0.0000 N   0  0  0  0  0  0  0  0  0  0  0  0
    8.0250   -3.9792    0.0000 O   0  0  0  0  0  0  0  0  0  0  0  0
    3.4875   -1.8250    0.0000 O   0  0  0  0  0  0  0  0  0  0  0  0
    7.1917   -2.5542    0.0000 C   0  0  0  0  0  0  0  0  0  0  0  0
   10.9042   -1.8417    0.0000 Cl  0  0  0  0  0  0  0  0  0  0  0  0
   10.9042   -4.7042    0.0000 Cl  0  0  0  0  0  0  0  0  0  0  0  0
    5.5417   -2.5417    0.0000 C   0  0  0  0  0  0  0  0  0  0  0  0
   11.7292   -3.2750    0.0000 O   0  0  0  0  0  0  0  0  0  0  0  0
    6.7875   -1.8375    0.0000 C   0  0  0  0  0  0  0  0  0  0  0  0
    6.7792   -3.2667    0.0000 C   0  0  0  0  0  0  0  0  0  0  0  0
    5.9542   -3.2667    0.0000 C   0  0  0  0  0  0  0  0  0  0  0  0
    5.9625   -1.8292    0.0000 C   0  0  0  0  0  0  0  0  0  0  0  0
    4.7250   -1.1125    0.0000 C   0  0  0  0  0  0  0  0  0  0  0  0
   12.1417   -3.9875    0.0000 C   0  0  0  0  0  0  0  0  0  0  0  0
   12.9667   -3.9875    0.0000 C   0  0  0  0  0  0  0  0  0  0  0  0
   13.3792   -4.7042    0.0000 C   0  0  0  0  0  0  0  0  0  0  0  0
   14.2125   -4.7042    0.0000 C   0  0  0  0  0  0  0  0  0  0  0  0
    8.4292   -1.8417    0.0000 H   0  0  0  0  0  0  0  0  0  0  0  0
  2  1  1  0  0  0  0
  3  5  1  0  0  0  0
  4  7  1  0  0  0  0
  5  8  2  0  0  0  0
  6  1  1  0  0  0  0
  7  2  2  0  0  0  0
  8  2  1  0  0  0  0
  9 10  1  0  0  0  0
 10 16  1  0  0  0  0
 11  1  2  0  0  0  0
 12  9  2  0  0  0  0
 13  6  1  0  0  0  0
 14  5  1  0  0  0  0
 15  4  1  0  0  0  0
 16 20  1  0  0  0  0
 17  3  1  0  0  0  0
 18 13  2  0  0  0  0
 19 13  1  0  0  0  0
 20 19  2  0  0  0  0
 21 18  1  0  0  0  0
 22  9  1  0  0  0  0
 23 17  1  0  0  0  0
 24 23  1  0  0  0  0
 25 24  1  0  0  0  0
 26 25  1  0  0  0  0
 27  6  1  0  0  0  0
  4  3  2  0  0  0  0
 21 16  2  0  0  0  0
M  END
>  <ID> (7805907)
7805907

>  <Supplier> (7805907)
ChemBridge

>  <clogP> (7805907)
4.609999999999999e+000

>  <RB> (7805907)
5

>  <tPSA> (7805907)
6.743000000000001e+001

>  <Hacc> (7805907)
3

>  <Hdon> (7805907)
2

>  <LogSw> (7805907)
-6.019000000000000e+000

>  <Group> (7805907)
1

>  <Core> (7805907)
157

$$$$
7960882
  -ISIS-  03310818282D

 29 32  0  0  0  0  0  0  0  0999 V2000
    7.3917    0.4750    0.0000 C   0  0  0  0  0  0  0  0  0  0  0  0
    6.7042    0.1708    0.0000 N   0  0  0  0  0  0  0  0  0  0  0  0
    5.4167    0.3083    0.0000 C   0  0  0  0  0  0  0  0  0  0  0  0
    6.1000    0.6083    0.0000 C   0  0  0  0  0  0  0  0  0  0  0  0
    8.0417    0.1000    0.0000 N   0  0  0  0  0  0  0  0  0  0  0  0
    7.5500    1.2083    0.0000 S   0  0  0  0  0  0  0  0  0  0  0  0
    4.7667    0.6833    0.0000 O   0  0  0  0  0  0  0  0  0  0  0  0
    8.2917    1.2875    0.0000 C   0  0  0  0  0  0  0  0  0  0  0  0
    5.2542   -0.4292    0.0000 C   0  0  0  0  0  0  0  0  0  0  0  0
    8.6000    0.6000    0.0000 C   0  0  0  0  0  0  0  0  0  0  0  0
    4.2042    0.1833    0.0000 C   0  0  0  0  0  0  0  0  0  0  0  0
    4.5125   -0.5042    0.0000 C   0  0  0  0  0  0  0  0  0  0  0  0
    9.4167    1.9375    0.0000 C   0  0  0  0  0  0  0  0  0  0  0  0
    8.6667    1.9375    0.0000 C   0  0  0  0  0  0  0  0  0  0  0  0
    6.1792    1.3583    0.0000 O   0  0  0  0  0  0  0  0  0  0  0  0
    9.7917    1.2875    0.0000 C   0  0  0  0  0  0  0  0  0  0  0  0
    2.9750   -0.2167    0.0000 S   0  0  0  0  0  0  0  0  0  0  0  0
    3.4750    0.3333    0.0000 C   0  0  0  0  0  0  0  0  0  0  0  0
    9.4167    0.6375    0.0000 Cl  0  0  0  0  0  0  0  0  0  0  0  0
    2.2417   -0.0667    0.0000 C   0  0  0  0  0  0  0  0  0  0  0  0
    9.7917    2.5833    0.0000 C   0  0  0  0  0  0  0  0  0  0  0  0
   10.5417    1.2875    0.0000 C   0  0  0  0  0  0  0  0  0  0  0  0
    2.0042    0.6458    0.0000 C   0  0  0  0  0  0  0  0  0  0  0  0
    1.7375   -0.6250    0.0000 C   0  0  0  0  0  0  0  0  0  0  0  0
   10.5417    2.5833    0.0000 C   0  0  0  0  0  0  0  0  0  0  0  0
   10.9167    1.9375    0.0000 C   0  0  0  0  0  0  0  0  0  0  0  0
    1.0042   -0.4667    0.0000 C   0  0  0  0  0  0  0  0  0  0  0  0
    1.2750    0.8000    0.0000 C   0  0  0  0  0  0  0  0  0  0  0  0
    0.7667    0.2458    0.0000 C   0  0  0  0  0  0  0  0  0  0  0  0
  2  1  1  0  0  0  0
  3  4  1  0  0  0  0
  4  2  1  0  0  0  0
  5  1  2  0  0  0  0
  6  1  1  0  0  0  0
  7  3  1  0  0  0  0
  8  6  1  0  0  0  0
  9  3  2  0  0  0  0
 10  5  1  0  0  0  0
 11  7  1  0  0  0  0
 12  9  1  0  0  0  0
 13 14  1  0  0  0  0
 14  8  1  0  0  0  0
 15  4  2  0  0  0  0
 16 13  1  0  0  0  0
 17 18  1  0  0  0  0
 18 11  1  0  0  0  0
 19 16  1  0  0  0  0
 20 17  1  0  0  0  0
 21 13  2  0  0  0  0
 22 16  2  0  0  0  0
 23 20  2  0  0  0  0
 24 20  1  0  0  0  0
 25 21  1  0  0  0  0
 26 25  2  0  0  0  0
 27 24  2  0  0  0  0
 28 23  1  0  0  0  0
 29 27  1  0  0  0  0
  8 10  2  0  0  0  0
 11 12  2  0  0  0  0
 26 22  1  0  0  0  0
 29 28  2  0  0  0  0
M  END
>  <ID> (7960882)
7960882

>  <Supplier> (7960882)
ChemBridge

>  <clogP> (7960882)
5.969000000000000e+000

>  <RB> (7960882)
7

>  <tPSA> (7960882)
5.513000000000000e+001

>  <Hacc> (7960882)
3

>  <Hdon> (7960882)
1

>  <LogSw> (7960882)
-7.512000000000000e+000

>  <Group> (7960882)
1

>  <Core> (7960882)
472

$$$$
7646361
  -ISIS-  03310818262D

 33 36  0  0  0  0  0  0  0  0999 V2000
   -3.0333    5.7292    0.0000 N   0  0  3  0  0  0  0  0  0  0  0  0
   -3.3875    5.5292    0.0000 C   0  0  0  0  0  0  0  0  0  0  0  0
   -3.0333    6.1542    0.0000 C   0  0  0  0  0  0  0  0  0  0  0  0
   -3.7458    5.7292    0.0000 N   0  0  0  0  0  0  0  0  0  0  0  0
   -3.3958    6.3625    0.0000 C   0  0  0  0  0  0  0  0  0  0  0  0
   -3.7500    6.1542    0.0000 C   0  0  0  0  0  0  0  0  0  0  0  0
   -3.3875    5.1042    0.0000 S   0  0  0  0  0  0  0  0  0  0  0  0
   -2.6708    5.5292    0.0000 C   0  0  0  0  0  0  0  0  0  0  0  0
   -2.6708    4.2792    0.0000 N   0  0  0  0  0  0  0  0  0  0  0  0
   -2.6708    3.8625    0.0000 C   0  0  0  0  0  0  0  0  0  0  0  0
   -3.0333    3.6583    0.0000 C   0  0  0  0  0  0  0  0  0  0  0  0
   -3.0333    4.4792    0.0000 C   0  0  0  0  0  0  0  0  0  0  0  0
   -2.6625    6.3625    0.0000 O   0  0  0  0  0  0  0  0  0  0  0  0
   -3.0250    3.2375    0.0000 C   0  0  0  0  0  0  0  0  0  0  0  0
   -3.3958    4.2792    0.0000 O   0  0  0  0  0  0  0  0  0  0  0  0
   -2.3083    3.6583    0.0000 C   0  0  0  0  0  0  0  0  0  0  0  0
   -3.0333    4.9042    0.0000 C   0  0  0  0  0  0  0  0  0  0  0  0
   -2.6750    5.1042    0.0000 C   0  0  0  0  0  0  0  0  0  0  0  0
   -2.3125    5.7292    0.0000 C   0  0  0  0  0  0  0  0  0  0  0  0
   -2.6708    3.0333    0.0000 C   0  0  0  0  0  0  0  0  0  0  0  0
   -3.3958    6.7792    0.0000 C   0  0  0  0  0  0  0  0  0  0  0  0
   -2.3083    3.2375    0.0000 C   0  0  0  0  0  0  0  0  0  0  0  0
   -3.3958    3.8708    0.0000 O   0  0  0  0  0  0  0  0  0  0  0  0
   -2.3208    4.9042    0.0000 C   0  0  0  0  0  0  0  0  0  0  0  0
   -1.9500    5.5292    0.0000 C   0  0  0  0  0  0  0  0  0  0  0  0
   -1.9583    5.1042    0.0000 C   0  0  0  0  0  0  0  0  0  0  0  0
   -2.6708    2.6125    0.0000 O   0  0  0  0  0  0  0  0  0  0  0  0
   -4.1125    6.3625    0.0000 C   0  0  0  0  0  0  0  0  0  0  0  0
   -1.5958    4.9000    0.0000 C   0  0  0  0  0  0  0  0  0  0  0  0
   -3.7583    3.6583    0.0000 C   0  0  0  0  0  0  0  0  0  0  0  0
   -2.3083    2.4083    0.0000 C   0  0  0  0  0  0  0  0  0  0  0  0
   -3.7583    6.9875    0.0000 C   0  0  0  0  0  0  0  0  0  0  0  0
   -4.1125    6.7792    0.0000 C   0  0  0  0  0  0  0  0  0  0  0  0
  2  1  1  0  0  0  0
  3  1  1  0  0  0  0
  4  2  2  0  0  0  0
  5  3  1  0  0  0  0
  6  5  2  0  0  0  0
  7  2  1  0  0  0  0
  8  1  1  0  0  0  0
  9 12  1  0  0  0  0
 10  9  1  0  0  0  0
 11 10  2  0  0  0  0
 12 17  1  0  0  0  0
 13  3  2  0  0  0  0
 14 11  1  0  0  0  0
 15 12  2  0  0  0  0
 16 10  1  0  0  0  0
 17  7  1  0  0  0  0
 18  8  2  0  0  0  0
 19  8  1  0  0  0  0
 20 22  1  0  0  0  0
 21  5  1  0  0  0  0
 22 16  2  0  0  0  0
 23 11  1  0  0  0  0
 24 18  1  0  0  0  0
 25 19  2  0  0  0  0
 26 25  1  0  0  0  0
 27 20  1  0  0  0  0
 28  6  1  0  0  0  0
 29 26  1  0  0  0  0
 30 23  1  0  0  0  0
 31 27  1  0  0  0  0
 32 21  2  0  0  0  0
 33 32  1  0  0  0  0
  6  4  1  0  0  0  0
 24 26  2  0  0  0  0
 33 28  2  0  0  0  0
 14 20  2  0  0  0  0
M  END
>  <ID> (7646361)
7646361

>  <Supplier> (7646361)
ChemBridge

>  <clogP> (7646361)
3.633000000000000e+000

>  <RB> (7646361)
5

>  <tPSA> (7646361)
8.244999999999999e+001

>  <Hacc> (7646361)
5

>  <Hdon> (7646361)
1

>  <LogSw> (7646361)
-6.061000000000000e+000

>  <Group> (7646361)
3

>  <Core> (7646361)
018

$$$$
7214755
  -ISIS-  03310818262D

 28 31  0  0  0  0  0  0  0  0999 V2000
    3.4292   -0.6125    0.0000 N   0  0  3  0  0  0  0  0  0  0  0  0
    3.4042   -1.4417    0.0000 C   0  0  0  0  0  0  0  0  0  0  0  0
    4.1125   -1.8667    0.0000 N   0  0  0  0  0  0  0  0  0  0  0  0
    2.6417   -0.3375    0.0000 C   0  0  0  0  0  0  0  0  0  0  0  0
    4.8542   -0.6417    0.0000 N   0  0  3  0  0  0  0  0  0  0  0  0
    4.1500   -0.2167    0.0000 C   0  0  0  0  0  0  0  0  0  0  0  0
    2.6167   -1.6750    0.0000 S   0  0  0  0  0  0  0  0  0  0  0  0
    2.1417   -0.9917    0.0000 C   0  0  0  0  0  0  0  0  0  0  0  0
    4.8375   -1.4750    0.0000 C   0  0  0  0  0  0  0  0  0  0  0  0
    5.5792   -0.2417    0.0000 C   0  0  0  0  0  0  0  0  0  0  0  0
    6.2792   -0.6792    0.0000 C   0  0  0  0  0  0  0  0  0  0  0  0
    6.9917   -0.2792    0.0000 C   0  0  0  0  0  0  0  0  0  0  0  0
    1.3167   -0.9750    0.0000 C   0  0  0  0  0  0  0  0  0  0  0  0
    2.4125    0.4583    0.0000 O   0  0  0  0  0  0  0  0  0  0  0  0
    0.9042   -1.6875    0.0000 C   0  0  0  0  0  0  0  0  0  0  0  0
    7.7042   -0.7042    0.0000 C   0  0  0  0  0  0  0  0  0  0  0  0
    0.0792   -1.7667    0.0000 C   0  0  0  0  0  0  0  0  0  0  0  0
    7.6875   -1.5292    0.0000 O   0  0  0  0  0  0  0  0  0  0  0  0
   -0.0958   -2.5750    0.0000 C   0  0  0  0  0  0  0  0  0  0  0  0
    5.5875    0.5750    0.0000 C   0  0  0  0  0  0  0  0  0  0  0  0
    7.0167    0.5458    0.0000 C   0  0  0  0  0  0  0  0  0  0  0  0
    6.3042    0.9708    0.0000 C   0  0  0  0  0  0  0  0  0  0  0  0
    8.4250   -0.3042    0.0000 C   0  0  0  0  0  0  0  0  0  0  0  0
    0.5167   -3.1250    0.0000 C   0  0  0  0  0  0  0  0  0  0  0  0
   -0.8833   -2.8167    0.0000 C   0  0  0  0  0  0  0  0  0  0  0  0
   -1.0583   -3.6250    0.0000 C   0  0  0  0  0  0  0  0  0  0  0  0
    0.3417   -3.9292    0.0000 C   0  0  0  0  0  0  0  0  0  0  0  0
   -0.4500   -4.1792    0.0000 C   0  0  0  0  0  0  0  0  0  0  0  0
  2  1  1  0  0  0  0
  3  2  2  0  0  0  0
  4  1  1  0  0  0  0
  5  6  1  0  0  0  0
  6  1  1  0  0  0  0
  7  2  1  0  0  0  0
  8  4  1  0  0  0  0
  9  5  1  0  0  0  0
 10  5  1  0  0  0  0
 11 10  2  0  0  0  0
 12 11  1  0  0  0  0
 13  8  2  0  0  0  0
 14  4  2  0  0  0  0
 15 13  1  0  0  0  0
 16 12  1  0  0  0  0
 17 15  2  0  0  0  0
 18 16  2  0  0  0  0
 19 17  1  0  0  0  0
 20 10  1  0  0  0  0
 21 22  1  0  0  0  0
 22 20  2  0  0  0  0
 23 16  1  0  0  0  0
 24 19  1  0  0  0  0
 25 19  2  0  0  0  0
 26 25  1  0  0  0  0
 27 24  2  0  0  0  0
 28 26  2  0  0  0  0
  7  8  1  0  0  0  0
  9  3  1  0  0  0  0
 21 12  2  0  0  0  0
 28 27  1  0  0  0  0
M  END
>  <ID> (7214755)
7214755

>  <Supplier> (7214755)
ChemBridge

>  <clogP> (7214755)
4.850000000000000e+000

>  <RB> (7214755)
4

>  <tPSA> (7214755)
5.467000000000000e+001

>  <Hacc> (7214755)
3

>  <Hdon> (7214755)
0

>  <LogSw> (7214755)
-6.181000000000000e+000

>  <Group> (7214755)
2

$$$$
6290615
  -ISIS-  03310818232D

 18 19  0  0  0  0  0  0  0  0999 V2000
   -2.4125   -3.5417    0.0000 C   0  0  0  0  0  0  0  0  0  0  0  0
   -2.3875   -2.9417    0.0000 C   0  0  0  0  0  0  0  0  0  0  0  0
   -2.9458   -3.8167    0.0000 N   0  0  0  0  0  0  0  0  0  0  0  0
   -3.4583   -4.1167    0.0000 C   0  0  0  0  0  0  0  0  0  0  0  0
   -3.4583   -4.7125    0.0000 C   0  0  0  0  0  0  0  0  0  0  0  0
   -1.8583   -2.6625    0.0000 C   0  0  0  0  0  0  0  0  0  0  0  0
   -1.9083   -3.8625    0.0000 O   0  0  0  0  0  0  0  0  0  0  0  0
   -3.9750   -5.0125    0.0000 C   0  0  0  0  0  0  0  0  0  0  0  0
   -3.9750   -3.8167    0.0000 C   0  0  0  0  0  0  0  0  0  0  0  0
   -4.4875   -4.7125    0.0000 C   0  0  0  0  0  0  0  0  0  0  0  0
   -1.3458   -2.9625    0.0000 F   0  0  0  0  0  0  0  0  0  0  0  0
   -4.4875   -4.1167    0.0000 C   0  0  0  0  0  0  0  0  0  0  0  0
   -5.0083   -5.0125    0.0000 I   0  0  0  0  0  0  0  0  0  0  0  0
   -2.9000   -2.6167    0.0000 C   0  0  0  0  0  0  0  0  0  0  0  0
   -2.9458   -5.0125    0.0000 C   0  0  0  0  0  0  0  0  0  0  0  0
   -1.8333   -2.0667    0.0000 C   0  0  0  0  0  0  0  0  0  0  0  0
   -2.8708   -2.0167    0.0000 C   0  0  0  0  0  0  0  0  0  0  0  0
   -2.3375   -1.7417    0.0000 C   0  0  0  0  0  0  0  0  0  0  0  0
  2  1  1  0  0  0  0
  3  1  1  0  0  0  0
  4  3  1  0  0  0  0
  5  4  1  0  0  0  0
  6  2  2  0  0  0  0
  7  1  2  0  0  0  0
  8  5  2  0  0  0  0
  9  4  2  0  0  0  0
 10 12  2  0  0  0  0
 11  6  1  0  0  0  0
 12  9  1  0  0  0  0
 13 10  1  0  0  0  0
 14  2  1  0  0  0  0
 15  5  1  0  0  0  0
 16  6  1  0  0  0  0
 17 14  2  0  0  0  0
 18 17  1  0  0  0  0
 18 16  2  0  0  0  0
  8 10  1  0  0  0  0
M  END
>  <ID> (6290615)
6290615

>  <Supplier> (6290615)
ChemBridge

>  <clogP> (6290615)
3.670000000000000e+000

>  <RB> (6290615)
2

>  <tPSA> (6290615)
2.910000000000000e+001

>  <Hacc> (6290615)
1

>  <Hdon> (6290615)
1

>  <LogSw> (6290615)
-4.924000000000000e+000

>  <Group> (6290615)
3

>  <Core> (6290615)
511

$$$$
6228354
  -ISIS-  03310818232D

 26 27  0  0  0  0  0  0  0  0999 V2000
    6.2167   -4.4667    0.0000 S   0  0  3  0  0  0  0  0  0  0  0  0
    6.2167   -3.6417    0.0000 N   0  0  3  0  0  0  0  0  0  0  0  0
    6.9292   -3.2292    0.0000 C   0  0  0  0  0  0  0  0  0  0  0  0
    7.6417   -3.6417    0.0000 C   0  0  0  0  0  0  0  0  0  0  0  0
    8.3625   -3.2292    0.0000 N   0  0  0  0  0  0  0  0  0  0  0  0
    9.0750   -3.6417    0.0000 C   0  0  0  0  0  0  0  0  0  0  0  0
    9.7875   -3.2250    0.0000 C   0  0  0  0  0  0  0  0  0  0  0  0
    6.8042   -5.0500    0.0000 O   0  0  0  0  0  0  0  0  0  0  0  0
    7.0417   -4.4667    0.0000 O   0  0  0  0  0  0  0  0  0  0  0  0
    5.5042   -3.2292    0.0000 C   0  0  0  0  0  0  0  0  0  0  0  0
   10.5042   -3.6417    0.0000 C   0  0  0  0  0  0  0  0  0  0  0  0
    7.6417   -4.4667    0.0000 O   0  0  0  0  0  0  0  0  0  0  0  0
    9.0667   -4.4667    0.0000 C   0  0  0  0  0  0  0  0  0  0  0  0
    5.5042   -2.4000    0.0000 C   0  0  0  0  0  0  0  0  0  0  0  0
    4.7917   -3.6542    0.0000 C   0  0  0  0  0  0  0  0  0  0  0  0
   10.5000   -4.4792    0.0000 C   0  0  0  0  0  0  0  0  0  0  0  0
    5.5042   -4.8750    0.0000 C   0  0  0  0  0  0  0  0  0  0  0  0
    4.0667   -2.4000    0.0000 C   0  0  0  0  0  0  0  0  0  0  0  0
    9.7792   -4.8875    0.0000 C   0  0  0  0  0  0  0  0  0  0  0  0
    9.7917   -2.3917    0.0000 O   0  0  0  0  0  0  0  0  0  0  0  0
    4.0667   -3.2292    0.0000 C   0  0  0  0  0  0  0  0  0  0  0  0
    4.7917   -1.9875    0.0000 C   0  0  0  0  0  0  0  0  0  0  0  0
    3.3542   -1.9875    0.0000 Br  0  0  0  0  0  0  0  0  0  0  0  0
   11.2167   -4.8917    0.0000 O   0  0  0  0  0  0  0  0  0  0  0  0
   10.5125   -1.9792    0.0000 C   0  0  0  0  0  0  0  0  0  0  0  0
   11.2125   -5.7250    0.0000 C   0  0  0  0  0  0  0  0  0  0  0  0
  2  1  1  0  0  0  0
  3  2  1  0  0  0  0
  4  3  1  0  0  0  0
  5  4  1  0  0  0  0
  6  5  1  0  0  0  0
  7  6  1  0  0  0  0
  8  1  2  0  0  0  0
  9  1  2  0  0  0  0
 10  2  1  0  0  0  0
 11  7  2  0  0  0  0
 12  4  2  0  0  0  0
 13  6  2  0  0  0  0
 14 10  2  0  0  0  0
 15 10  1  0  0  0  0
 16 19  2  0  0  0  0
 17  1  1  0  0  0  0
 18 21  1  0  0  0  0
 19 13  1  0  0  0  0
 20  7  1  0  0  0  0
 21 15  2  0  0  0  0
 22 14  1  0  0  0  0
 23 18  1  0  0  0  0
 24 16  1  0  0  0  0
 25 20  1  0  0  0  0
 26 24  1  0  0  0  0
 18 22  2  0  0  0  0
 11 16  1  0  0  0  0
M  END
>  <ID> (6228354)
6228354

>  <Supplier> (6228354)
ChemBridge

>  <clogP> (6228354)
2.740000000000000e+000

>  <RB> (6228354)
4

>  <tPSA> (6228354)
8.494000000000000e+001

>  <Hacc> (6228354)
5

>  <Hdon> (6228354)
1

>  <LogSw> (6228354)
-4.771000000000003e+000

>  <Group> (6228354)
2

>  <Core> (6228354)
084

$$$$
5802267
  -ISIS-  03310818222D

 30 34  0  0  0  0  0  0  0  0999 V2000
   -0.7125   -0.3542    0.0000 C   0  0  0  0  0  0  0  0  0  0  0  0
   -1.0333   -1.2167    0.0000 N   0  0  3  0  0  0  0  0  0  0  0  0
   -1.4333    0.2000    0.0000 C   0  0  0  0  0  0  0  0  0  0  0  0
   -1.9333   -1.1792    0.0000 N   0  0  0  0  0  0  0  0  0  0  0  0
   -2.1958   -0.3167    0.0000 C   0  0  0  0  0  0  0  0  0  0  0  0
   -0.4708   -1.9000    0.0000 C   0  0  0  0  0  0  0  0  0  0  0  0
   -1.4333    1.1208    0.0000 C   0  0  0  0  0  0  0  0  0  0  0  0
    0.1875   -0.2167    0.0000 N   0  0  0  0  0  0  0  0  0  0  0  0
    0.4292   -1.7542    0.0000 C   0  0  0  0  0  0  0  0  0  0  0  0
    0.7500   -0.9167    0.0000 C   0  0  0  0  0  0  0  0  0  0  0  0
   -0.6500    1.5625    0.0000 C   0  0  0  0  0  0  0  0  0  0  0  0
   -3.0500    0.0000    0.0000 C   0  0  0  0  0  0  0  0  0  0  0  0
   -0.7958   -2.7542    0.0000 O   0  0  0  0  0  0  0  0  0  0  0  0
   -0.6500    2.4833    0.0000 C   0  0  0  0  0  0  0  0  0  0  0  0
   -2.2125    1.5625    0.0000 C   0  0  0  0  0  0  0  0  0  0  0  0
   -3.7333   -0.6167    0.0000 C   0  0  0  0  0  0  0  0  0  0  0  0
    1.6500   -0.7792    0.0000 C   0  0  0  0  0  0  0  0  0  0  0  0
    0.1500    1.1208    0.0000 C   0  0  0  0  0  0  0  0  0  0  0  0
   -2.2125    2.4833    0.0000 C   0  0  0  0  0  0  0  0  0  0  0  0
   -1.4333    2.9208    0.0000 C   0  0  0  0  0  0  0  0  0  0  0  0
    0.1500    2.9208    0.0000 C   0  0  0  0  0  0  0  0  0  0  0  0
   -4.5958   -0.3167    0.0000 C   0  0  0  0  0  0  0  0  0  0  0  0
   -3.5708   -1.5000    0.0000 C   0  0  0  0  0  0  0  0  0  0  0  0
    1.9875    0.0833    0.0000 C   0  0  0  0  0  0  0  0  0  0  0  0
    0.9292    1.5625    0.0000 C   0  0  0  0  0  0  0  0  0  0  0  0
    2.8667    0.2208    0.0000 C   0  0  0  0  0  0  0  0  0  0  0  0
    0.9292    2.4833    0.0000 C   0  0  0  0  0  0  0  0  0  0  0  0
   -4.2500   -2.0792    0.0000 C   0  0  0  0  0  0  0  0  0  0  0  0
   -5.2708   -0.9000    0.0000 C   0  0  0  0  0  0  0  0  0  0  0  0
   -5.1125   -1.7542    0.0000 C   0  0  0  0  0  0  0  0  0  0  0  0
  2  1  1  0  0  0  0
  3  1  2  0  0  0  0
  4  2  1  0  0  0  0
  5  3  1  0  0  0  0
  6  2  1  0  0  0  0
  7  3  1  0  0  0  0
  8  1  1  0  0  0  0
  9 10  2  0  0  0  0
 10  8  1  0  0  0  0
 11  7  2  0  0  0  0
 12  5  1  0  0  0  0
 13  6  2  0  0  0  0
 14 11  1  0  0  0  0
 15  7  1  0  0  0  0
 16 12  1  0  0  0  0
 17 10  1  0  0  0  0
 18 11  1  0  0  0  0
 19 15  2  0  0  0  0
 20 19  1  0  0  0  0
 21 14  1  0  0  0  0
 22 16  2  0  0  0  0
 23 16  1  0  0  0  0
 24 17  1  0  0  0  0
 25 18  2  0  0  0  0
 26 24  1  0  0  0  0
 27 25  1  0  0  0  0
 28 23  2  0  0  0  0
 29 22  1  0  0  0  0
 30 28  1  0  0  0  0
  4  5  2  0  0  0  0
  6  9  1  0  0  0  0
 20 14  2  0  0  0  0
 21 27  2  0  0  0  0
 30 29  2  0  0  0  0
M  END
>  <ID> (5802267)
5802267

>  <Supplier> (5802267)
ChemBridge

>  <clogP> (5802267)
5.370000000000000e+000

>  <RB> (5802267)
3

>  <tPSA> (5802267)
5.016000000000000e+001

>  <Hacc> (5802267)
3

>  <Hdon> (5802267)
1

>  <LogSw> (5802267)
-6.654999999999998e+000

>  <Group> (5802267)
1

>  <Core> (5802267)
057

$$$$
5802261
  -ISIS-  03310818222D

 22 24  0  0  0  0  0  0  0  0999 V2000
    2.7542   -0.7667    0.0000 N   0  0  0  0  0  0  0  0  0  0  0  0
    2.8167   -1.5167    0.0000 C   0  0  0  0  0  0  0  0  0  0  0  0
    3.9375   -1.0500    0.0000 C   0  0  0  0  0  0  0  0  0  0  0  0
    3.4500   -0.4792    0.0000 C   0  0  0  0  0  0  0  0  0  0  0  0
    3.5417   -1.6917    0.0000 S   0  0  0  0  0  0  0  0  0  0  0  0
    4.6792   -0.9917    0.0000 C   0  0  0  0  0  0  0  0  0  0  0  0
    2.2500   -2.0042    0.0000 N   0  0  0  0  0  0  0  0  0  0  0  0
    1.5417   -1.7542    0.0000 N   0  0  0  0  0  0  0  0  0  0  0  0
    3.6167    0.2458    0.0000 O   0  0  0  0  0  0  0  0  0  0  0  0
    0.9667   -2.2500    0.0000 C   0  0  0  0  0  0  0  0  0  0  0  0
    5.1125   -1.6042    0.0000 C   0  0  0  0  0  0  0  0  0  0  0  0
    0.2667   -2.0000    0.0000 C   0  0  0  0  0  0  0  0  0  0  0  0
    4.7917   -2.2792    0.0000 C   0  0  0  0  0  0  0  0  0  0  0  0
    5.8542   -1.5417    0.0000 C   0  0  0  0  0  0  0  0  0  0  0  0
   -0.3083   -2.4875    0.0000 C   0  0  0  0  0  0  0  0  0  0  0  0
    0.1250   -1.2625    0.0000 C   0  0  0  0  0  0  0  0  0  0  0  0
   -0.5833   -1.0167    0.0000 C   0  0  0  0  0  0  0  0  0  0  0  0
    5.2167   -2.9000    0.0000 C   0  0  0  0  0  0  0  0  0  0  0  0
    6.2875   -2.1625    0.0000 C   0  0  0  0  0  0  0  0  0  0  0  0
   -1.0125   -2.2417    0.0000 C   0  0  0  0  0  0  0  0  0  0  0  0
   -1.1500   -1.5042    0.0000 C   0  0  0  0  0  0  0  0  0  0  0  0
    5.9667   -2.8417    0.0000 C   0  0  0  0  0  0  0  0  0  0  0  0
  2  1  1  0  0  0  0
  3  4  1  0  0  0  0
  4  1  1  0  0  0  0
  5  2  1  0  0  0  0
  6  3  2  0  0  0  0
  7  2  2  0  0  0  0
  8  7  1  0  0  0  0
  9  4  2  0  0  0  0
 10  8  2  0  0  0  0
 11  6  1  0  0  0  0
 12 10  1  0  0  0  0
 13 11  1  0  0  0  0
 14 11  2  0  0  0  0
 15 12  2  0  0  0  0
 16 12  1  0  0  0  0
 17 16  2  0  0  0  0
 18 13  2  0  0  0  0
 19 14  1  0  0  0  0
 20 15  1  0  0  0  0
 21 17  1  0  0  0  0
 22 19  2  0  0  0  0
  3  5  1  0  0  0  0
 22 18  1  0  0  0  0
 20 21  2  0  0  0  0
M  END
>  <ID> (5802261)
5802261

>  <Supplier> (5802261)
ChemBridge

>  <clogP> (5802261)
4.010000000000000e+000

>  <RB> (5802261)
3

>  <tPSA> (5802261)
5.381999999999999e+001

>  <Hacc> (5802261)
3

>  <Hdon> (5802261)
1

>  <LogSw> (5802261)
-4.866000000000000e+000

>  <Group> (5802261)
1

>  <Core> (5802261)
004

$$$$
6682789
  -ISIS-  03310818242D

 25 28  0  0  0  0  0  0  0  0999 V2000
    5.1042   -1.7375    0.0000 N   0  0  3  0  0  0  0  0  0  0  0  0
    4.7667   -2.4917    0.0000 C   0  0  0  0  0  0  0  0  0  0  0  0
    3.7792   -1.5917    0.0000 C   0  0  0  0  0  0  0  0  0  0  0  0
    4.4917   -1.1792    0.0000 C   0  0  0  0  0  0  0  0  0  0  0  0
    3.9417   -2.4000    0.0000 S   0  0  0  0  0  0  0  0  0  0  0  0
    3.0292   -1.2542    0.0000 C   0  0  0  0  0  0  0  0  0  0  0  0
    2.3542   -1.7417    0.0000 C   0  0  0  0  0  0  0  0  0  0  0  0
    0.9292   -1.8792    0.0000 C   0  0  0  0  0  0  0  0  0  0  0  0
    1.0042   -2.7042    0.0000 C   0  0  0  0  0  0  0  0  0  0  0  0
    5.9125   -1.5667    0.0000 C   0  0  0  0  0  0  0  0  0  0  0  0
    1.7625   -3.0500    0.0000 C   0  0  0  0  0  0  0  0  0  0  0  0
    1.6000   -1.3917    0.0000 C   0  0  0  0  0  0  0  0  0  0  0  0
    2.4375   -2.5625    0.0000 C   0  0  0  0  0  0  0  0  0  0  0  0
    5.1750   -3.2042    0.0000 O   0  0  0  0  0  0  0  0  0  0  0  0
    0.4500   -3.3250    0.0000 O   0  0  0  0  0  0  0  0  0  0  0  0
    1.6750   -3.8750    0.0000 O   0  0  0  0  0  0  0  0  0  0  0  0
    4.5875   -0.3625    0.0000 O   0  0  0  0  0  0  0  0  0  0  0  0
    0.8667   -4.0417    0.0000 C   0  0  0  0  0  0  0  0  0  0  0  0
    6.4625   -2.1917    0.0000 C   0  0  0  0  0  0  0  0  0  0  0  0
    6.1667   -0.7917    0.0000 C   0  0  0  0  0  0  0  0  0  0  0  0
    1.5167   -0.5792    0.0000 Cl  0  0  0  0  0  0  0  0  0  0  0  0
    7.5292   -1.2417    0.0000 C   0  0  0  0  0  0  0  0  0  0  0  0
    6.9792   -0.6250    0.0000 C   0  0  0  0  0  0  0  0  0  0  0  0
    7.2667   -2.0250    0.0000 C   0  0  0  0  0  0  0  0  0  0  0  0
    8.3375   -1.0792    0.0000 Cl  0  0  0  0  0  0  0  0  0  0  0  0
  2  1  1  0  0  0  0
  3  4  1  0  0  0  0
  4  1  1  0  0  0  0
  5  2  1  0  0  0  0
  6  3  2  0  0  0  0
  7  6  1  0  0  0  0
  8 12  1  0  0  0  0
  9 11  1  0  0  0  0
 10  1  1  0  0  0  0
 11 13  2  0  0  0  0
 12  7  2  0  0  0  0
 13  7  1  0  0  0  0
 14  2  2  0  0  0  0
 15  9  1  0  0  0  0
 16 11  1  0  0  0  0
 17  4  2  0  0  0  0
 18 16  1  0  0  0  0
 19 10  2  0  0  0  0
 20 10  1  0  0  0  0
 21 12  1  0  0  0  0
 22 23  1  0  0  0  0
 23 20  2  0  0  0  0
 24 19  1  0  0  0  0
 25 22  1  0  0  0  0
  5  3  1  0  0  0  0
 22 24  2  0  0  0  0
  9  8  2  0  0  0  0
 18 15  1  0  0  0  0
M  END
>  <ID> (6682789)
6682789

>  <Supplier> (6682789)
ChemBridge

>  <clogP> (6682789)
5.070000000000000e+000

>  <RB> (6682789)
2

>  <tPSA> (6682789)
5.584000000000000e+001

>  <Hacc> (6682789)
4

>  <Hdon> (6682789)
0

>  <LogSw> (6682789)
-6.404000000000000e+000

>  <Group> (6682789)
2

>  <Core> (6682789)
002

$$$$
7960889
  -ISIS-  03310818282D

 32 34  0  0  0  0  0  0  0  0999 V2000
    7.2417    3.1083    0.0000 C   0  0  0  0  0  0  0  0  0  0  0  0
    6.0292    3.1083    0.0000 N   0  0  3  0  0  0  0  0  0  0  0  0
    6.6292    3.5458    0.0000 C   0  0  0  0  0  0  0  0  0  0  0  0
    7.9542    3.3375    0.0000 C   0  0  0  0  0  0  0  0  0  0  0  0
    7.0042    2.3958    0.0000 C   0  0  0  0  0  0  0  0  0  0  0  0
    8.1042    4.0667    0.0000 C   0  0  0  0  0  0  0  0  0  0  0  0
    6.2542    2.3958    0.0000 C   0  0  0  0  0  0  0  0  0  0  0  0
    1.5000    2.5250    0.0000 C   0  0  3  0  0  0  0  0  0  0  0  0
    4.7542    2.8333    0.0000 C   0  0  0  0  0  0  0  0  0  0  0  0
    5.3125    3.3375    0.0000 C   0  0  0  0  0  0  0  0  0  0  0  0
    2.2167    2.2958    0.0000 C   0  0  0  0  0  0  0  0  0  0  0  0
    8.8250    4.2917    0.0000 N   0  0  3  0  0  0  0  0  0  0  0  0
    4.0417    3.0708    0.0000 N   0  0  0  0  0  0  0  0  0  0  0  0
    7.5542    4.5667    0.0000 O   0  0  0  0  0  0  0  0  0  0  0  0
    8.5125    2.8333    0.0000 O   0  0  0  0  0  0  0  0  0  0  0  0
    2.7667    2.7958    0.0000 C   0  0  0  0  0  0  0  0  0  0  0  0
    3.4875    2.5625    0.0000 C   0  0  0  0  0  0  0  0  0  0  0  0
    4.9125    2.1000    0.0000 O   0  0  0  0  0  0  0  0  0  0  0  0
    1.0917    1.8958    0.0000 F   0  0  0  0  0  0  0  0  0  0  0  0
    1.7917    3.2208    0.0000 F   0  0  0  0  0  0  0  0  0  0  0  0
    0.8417    2.8833    0.0000 F   0  0  0  0  0  0  0  0  0  0  0  0
    7.3792    1.7458    0.0000 C   0  0  0  0  0  0  0  0  0  0  0  0
    5.8792    1.7458    0.0000 C   0  0  0  0  0  0  0  0  0  0  0  0
    2.3667    1.5583    0.0000 C   0  0  0  0  0  0  0  0  0  0  0  0
    3.0792    1.3333    0.0000 C   0  0  0  0  0  0  0  0  0  0  0  0
    8.9792    5.0292    0.0000 C   0  0  0  0  0  0  0  0  0  0  0  0
    9.3792    3.8000    0.0000 C   0  0  0  0  0  0  0  0  0  0  0  0
    3.6417    1.8333    0.0000 C   0  0  0  0  0  0  0  0  0  0  0  0
    9.6917    5.2625    0.0000 C   0  0  0  0  0  0  0  0  0  0  0  0
   10.0917    4.0250    0.0000 C   0  0  0  0  0  0  0  0  0  0  0  0
    7.0042    1.0958    0.0000 C   0  0  0  0  0  0  0  0  0  0  0  0
    6.2542    1.0958    0.0000 C   0  0  0  0  0  0  0  0  0  0  0  0
  2  3  1  0  0  0  0
  3  1  2  0  0  0  0
  4  1  1  0  0  0  0
  5  1  1  0  0  0  0
  6  4  1  0  0  0  0
  7  5  2  0  0  0  0
  8 11  1  0  0  0  0
  9 10  1  0  0  0  0
 10  2  1  0  0  0  0
 11 16  1  0  0  0  0
 12  6  1  0  0  0  0
 13  9  1  0  0  0  0
 14  6  2  0  0  0  0
 15  4  2  0  0  0  0
 16 17  2  0  0  0  0
 17 13  1  0  0  0  0
 18  9  2  0  0  0  0
 19  8  1  0  0  0  0
 20  8  1  0  0  0  0
 21  8  1  0  0  0  0
 22  5  1  0  0  0  0
 23  7  1  0  0  0  0
 24 25  1  0  0  0  0
 25 28  2  0  0  0  0
 26 12  1  0  0  0  0
 27 12  1  0  0  0  0
 28 17  1  0  0  0  0
 29 26  1  0  0  0  0
 30 27  1  0  0  0  0
 31 22  2  0  0  0  0
 32 31  1  0  0  0  0
  7  2  1  0  0  0  0
 23 32  2  0  0  0  0
 11 24  2  0  0  0  0
M  END
>  <ID> (7960889)
7960889

>  <Supplier> (7960889)
ChemBridge

>  <clogP> (7960889)
3.908000000000000e+000

>  <RB> (7960889)
5

>  <tPSA> (7960889)
7.141000000000000e+001

>  <Hacc> (7960889)
3

>  <Hdon> (7960889)
1

>  <LogSw> (7960889)
-5.784000000000000e+000

>  <Group> (7960889)
1

>  <Core> (7960889)
503

$$$$
7575215
  -ISIS-  03310818262D

 30 33  0  0  0  0  0  0  0  0999 V2000
   -0.9708    1.3708    0.0000 C   0  0  0  0  0  0  0  0  0  0  0  0
   -0.4708    1.2125    0.0000 C   0  0  0  0  0  0  0  0  0  0  0  0
   -0.4708    0.6708    0.0000 C   0  0  0  0  0  0  0  0  0  0  0  0
   -0.9958    0.5125    0.0000 N   0  0  0  0  0  0  0  0  0  0  0  0
   -1.2958    0.9500    0.0000 C   0  0  0  0  0  0  0  0  0  0  0  0
   -0.9333   -1.2292    0.0000 C   0  0  0  0  0  0  0  0  0  0  0  0
   -1.4333   -1.0667    0.0000 C   0  0  0  0  0  0  0  0  0  0  0  0
   -1.7333   -1.4875    0.0000 C   0  0  0  0  0  0  0  0  0  0  0  0
   -0.9333   -1.7667    0.0000 C   0  0  0  0  0  0  0  0  0  0  0  0
   -1.4333   -1.9292    0.0000 S   0  0  0  0  0  0  0  0  0  0  0  0
   -0.4708   -0.9667    0.0000 C   0  0  0  0  0  0  0  0  0  0  0  0
   -1.1500    1.8958    0.0000 C   0  0  0  0  0  0  0  0  0  0  0  0
   -0.0125    0.3958    0.0000 C   0  0  0  0  0  0  0  0  0  0  0  0
   -0.4708   -2.0500    0.0000 N   0  0  0  0  0  0  0  0  0  0  0  0
    0.0042   -1.2292    0.0000 N   0  0  0  0  0  0  0  0  0  0  0  0
   -0.4708   -0.4292    0.0000 S   0  0  0  0  0  0  0  0  0  0  0  0
    0.0042   -1.7875    0.0000 C   0  0  0  0  0  0  0  0  0  0  0  0
   -0.0125   -0.1500    0.0000 C   0  0  0  0  0  0  0  0  0  0  0  0
   -1.6333   -0.5875    0.0000 C   0  0  0  0  0  0  0  0  0  0  0  0
   -0.7958    2.2958    0.0000 O   0  0  0  0  0  0  0  0  0  0  0  0
    0.4667    0.6500    0.0000 O   0  0  0  0  0  0  0  0  0  0  0  0
   -0.0125    1.5333    0.0000 C   0  0  0  0  0  0  0  0  0  0  0  0
   -1.6958    1.9958    0.0000 O   0  0  0  0  0  0  0  0  0  0  0  0
   -1.8333    0.9500    0.0000 C   0  0  0  0  0  0  0  0  0  0  0  0
   -2.1500   -0.5292    0.0000 C   0  0  0  0  0  0  0  0  0  0  0  0
   -1.2958   -0.1667    0.0000 C   0  0  0  0  0  0  0  0  0  0  0  0
   -2.0500    1.5958    0.0000 C   0  0  0  0  0  0  0  0  0  0  0  0
   -2.3500   -0.0292    0.0000 C   0  0  0  0  0  0  0  0  0  0  0  0
   -1.4958    0.3333    0.0000 C   0  0  0  0  0  0  0  0  0  0  0  0
   -2.0333    0.4125    0.0000 C   0  0  0  0  0  0  0  0  0  0  0  0
  2  1  1  0  0  0  0
  3  2  2  0  0  0  0
  4  5  1  0  0  0  0
  5  1  2  0  0  0  0
  6 11  1  0  0  0  0
  7  6  1  0  0  0  0
  8  7  2  0  0  0  0
  9  6  2  0  0  0  0
 10  9  1  0  0  0  0
 11 16  1  0  0  0  0
 12  1  1  0  0  0  0
 13  3  1  0  0  0  0
 14 17  2  0  0  0  0
 15 11  2  0  0  0  0
 16 18  1  0  0  0  0
 17 15  1  0  0  0  0
 18 13  1  0  0  0  0
 19  7  1  0  0  0  0
 20 12  2  0  0  0  0
 21 13  2  0  0  0  0
 22  2  1  0  0  0  0
 23 12  1  0  0  0  0
 24  5  1  0  0  0  0
 25 19  2  0  0  0  0
 26 19  1  0  0  0  0
 27 23  1  0  0  0  0
 28 25  1  0  0  0  0
 29 26  2  0  0  0  0
 30 29  1  0  0  0  0
  4  3  1  0  0  0  0
 14  9  1  0  0  0  0
  8 10  1  0  0  0  0
 30 28  2  0  0  0  0
M  END
>  <ID> (7575215)
7575215

>  <Supplier> (7575215)
ChemBridge

>  <clogP> (7575215)
5.103000000000000e+000

>  <RB> (7575215)
6

>  <tPSA> (7575215)
8.494000000000000e+001

>  <Hacc> (7575215)
5

>  <Hdon> (7575215)
1

>  <LogSw> (7575215)
-6.158000000000000e+000

>  <Group> (7575215)
2

>  <Core> (7575215)
024

$$$$
6682786
  -ISIS-  03310818242D

 22 23  0  0  0  0  0  0  0  0999 V2000
   -0.2208    0.5708    0.0000 S   0  0  3  0  0  0  0  0  0  0  0  0
   -0.6625    0.3333    0.0000 C   0  0  0  0  0  0  0  0  0  0  0  0
   -0.6625   -0.1667    0.0000 C   0  0  0  0  0  0  0  0  0  0  0  0
    0.2167    0.8125    0.0000 N   0  0  0  0  0  0  0  0  0  0  0  0
   -1.0833   -0.4042    0.0000 C   0  0  0  0  0  0  0  0  0  0  0  0
   -1.0833   -0.9042    0.0000 C   0  0  0  0  0  0  0  0  0  0  0  0
   -0.4625    1.0125    0.0000 O   0  0  0  0  0  0  0  0  0  0  0  0
    0.0167    0.1500    0.0000 O   0  0  0  0  0  0  0  0  0  0  0  0
   -1.0833    0.5708    0.0000 C   0  0  0  0  0  0  0  0  0  0  0  0
   -1.5000   -1.1500    0.0000 O   0  0  0  0  0  0  0  0  0  0  0  0
   -1.5000   -0.1667    0.0000 C   0  0  0  0  0  0  0  0  0  0  0  0
   -1.5000    0.3125    0.0000 C   0  0  0  0  0  0  0  0  0  0  0  0
    0.2167    1.3125    0.0000 C   0  0  0  0  0  0  0  0  0  0  0  0
   -0.6625   -1.1500    0.0000 O   0  0  0  0  0  0  0  0  0  0  0  0
    0.2167    2.2708    0.0000 C   0  0  0  0  0  0  0  0  0  0  0  0
    0.2167    2.7708    0.0000 Cl  0  0  0  0  0  0  0  0  0  0  0  0
   -1.0833    1.0500    0.0000 O   0  0  0  0  0  0  0  0  0  0  0  0
   -0.2000    1.5500    0.0000 C   0  0  0  0  0  0  0  0  0  0  0  0
    0.6375    1.5500    0.0000 C   0  0  0  0  0  0  0  0  0  0  0  0
   -0.2000    2.0333    0.0000 C   0  0  0  0  0  0  0  0  0  0  0  0
    0.6375    2.0333    0.0000 C   0  0  0  0  0  0  0  0  0  0  0  0
   -1.5000    1.2958    0.0000 C   0  0  0  0  0  0  0  0  0  0  0  0
  2  1  1  0  0  0  0
  3  2  2  0  0  0  0
  4  1  1  0  0  0  0
  5  3  1  0  0  0  0
  6  5  1  0  0  0  0
  7  1  2  0  0  0  0
  8  1  2  0  0  0  0
  9  2  1  0  0  0  0
 10  6  2  0  0  0  0
 11 12  1  0  0  0  0
 12  9  2  0  0  0  0
 13  4  1  0  0  0  0
 14  6  1  0  0  0  0
 15 21  2  0  0  0  0
 16 15  1  0  0  0  0
 17  9  1  0  0  0  0
 18 13  1  0  0  0  0
 19 13  2  0  0  0  0
 20 18  2  0  0  0  0
 21 19  1  0  0  0  0
 22 17  1  0  0  0  0
 15 20  1  0  0  0  0
  5 11  2  0  0  0  0
M  END
>  <ID> (6682786)
6682786

>  <Supplier> (6682786)
ChemBridge

>  <clogP> (6682786)
3.120000000000000e+000

>  <RB> (6682786)
3

>  <tPSA> (6682786)
9.270000000000002e+001

>  <Hacc> (6682786)
5

>  <Hdon> (6682786)
2

>  <LogSw> (6682786)
-4.356999999999998e+000

>  <Group> (6682786)
1

>  <Core> (6682786)
272

$$$$
9081957
  -ISIS-  03310818292D

 22 24  0  0  0  0  0  0  0  0999 V2000
    3.3292    2.3333    0.0000 N   0  0  3  0  0  0  0  0  0  0  0  0
    2.5917    2.1708    0.0000 C   0  0  0  0  0  0  0  0  0  0  0  0
    3.8875    1.8208    0.0000 C   0  0  0  0  0  0  0  0  0  0  0  0
    2.2167    2.8208    0.0000 C   0  0  0  0  0  0  0  0  0  0  0  0
    5.8667    1.7833    0.0000 C   0  0  0  0  0  0  0  0  0  0  0  0
    6.4292    1.2833    0.0000 C   0  0  0  0  0  0  0  0  0  0  0  0
    3.4042    3.0708    0.0000 C   0  0  0  0  0  0  0  0  0  0  0  0
    6.2750    0.5458    0.0000 C   0  0  0  0  0  0  0  0  0  0  0  0
    6.1167   -0.1875    0.0000 N   0  0  0  0  0  0  0  0  0  0  0  0
    5.1542    1.5500    0.0000 S   0  0  0  0  0  0  0  0  0  0  0  0
    2.2167    1.5208    0.0000 C   0  0  0  0  0  0  0  0  0  0  0  0
    6.0292    2.5208    0.0000 N   0  0  0  0  0  0  0  0  0  0  0  0
    4.6000    2.0583    0.0000 C   0  0  0  0  0  0  0  0  0  0  0  0
    2.7250    3.3750    0.0000 C   0  0  0  0  0  0  0  0  0  0  0  0
    1.4667    2.8208    0.0000 C   0  0  0  0  0  0  0  0  0  0  0  0
    3.7292    1.0875    0.0000 O   0  0  0  0  0  0  0  0  0  0  0  0
    1.0917    2.1708    0.0000 C   0  0  0  0  0  0  0  0  0  0  0  0
    1.4667    1.5208    0.0000 C   0  0  0  0  0  0  0  0  0  0  0  0
    0.3417    2.1708    0.0000 Br  0  0  0  0  0  0  0  0  0  0  0  0
    7.1417    1.5125    0.0000 C   0  0  0  0  0  0  0  0  0  0  0  0
    6.7417    2.7500    0.0000 C   0  0  0  0  0  0  0  0  0  0  0  0
    7.3000    2.2458    0.0000 C   0  0  0  0  0  0  0  0  0  0  0  0
  2  1  1  0  0  0  0
  3  1  1  0  0  0  0
  4  2  2  0  0  0  0
  5 10  1  0  0  0  0
  6  5  1  0  0  0  0
  7  1  1  0  0  0  0
  8  6  1  0  0  0  0
  9  8  3  0  0  0  0
 10 13  1  0  0  0  0
 11  2  1  0  0  0  0
 12  5  2  0  0  0  0
 13  3  1  0  0  0  0
 14  7  1  0  0  0  0
 15  4  1  0  0  0  0
 16  3  2  0  0  0  0
 17 18  1  0  0  0  0
 18 11  2  0  0  0  0
 19 17  1  0  0  0  0
 20  6  2  0  0  0  0
 21 12  1  0  0  0  0
 22 21  2  0  0  0  0
 14  4  1  0  0  0  0
 15 17  2  0  0  0  0
 22 20  1  0  0  0  0
M  END
>  <ID> (9081957)
9081957

>  <Supplier> (9081957)
ChemBridge

>  <clogP> (9081957)
3.300000000000000e+000

>  <RB> (9081957)
3

>  <tPSA> (9081957)
5.699000000000000e+001

>  <Hacc> (9081957)
3

>  <Hdon> (9081957)
0

>  <LogSw> (9081957)
-5.012000000000000e+000

>  <Group> (9081957)
3

>  <Core> (9081957)
022

$$$$
5311775
  -ISIS-  03310818212D

 21 22  0  0  0  0  0  0  0  0999 V2000
   -1.8500    0.5458    0.0000 P   0  0  3  0  0  0  0  0  0  0  0  0
   -1.1708    0.1458    0.0000 C   0  0  3  0  0  0  0  0  0  0  0  0
   -0.4958    0.5208    0.0000 C   0  0  0  0  0  0  0  0  0  0  0  0
   -1.4500    1.2208    0.0000 O   0  0  0  0  0  0  0  0  0  0  0  0
   -2.5500    0.9458    0.0000 C   0  0  0  0  0  0  0  0  0  0  0  0
   -2.2500   -0.1542    0.0000 C   0  0  0  0  0  0  0  0  0  0  0  0
   -0.4708    1.3000    0.0000 O   0  0  0  0  0  0  0  0  0  0  0  0
    0.1875    0.1458    0.0000 O   0  0  0  0  0  0  0  0  0  0  0  0
   -1.1708   -0.6375    0.0000 C   0  0  0  0  0  0  0  0  0  0  0  0
   -1.8708   -0.8375    0.0000 C   0  0  0  0  0  0  0  0  0  0  0  0
   -2.5500    1.7208    0.0000 C   0  0  0  0  0  0  0  0  0  0  0  0
   -3.2125    0.5458    0.0000 C   0  0  0  0  0  0  0  0  0  0  0  0
   -3.0500   -0.1542    0.0000 C   0  0  0  0  0  0  0  0  0  0  0  0
    0.8542    0.5458    0.0000 C   0  0  0  0  0  0  0  0  0  0  0  0
    1.5500    0.1625    0.0000 C   0  0  0  0  0  0  0  0  0  0  0  0
   -2.2500   -1.5167    0.0000 C   0  0  0  0  0  0  0  0  0  0  0  0
   -3.8958    0.9208    0.0000 C   0  0  0  0  0  0  0  0  0  0  0  0
   -3.4333   -0.8375    0.0000 C   0  0  0  0  0  0  0  0  0  0  0  0
   -3.2125    2.1000    0.0000 C   0  0  0  0  0  0  0  0  0  0  0  0
   -3.9125    1.7000    0.0000 C   0  0  0  0  0  0  0  0  0  0  0  0
   -3.0500   -1.5167    0.0000 C   0  0  0  0  0  0  0  0  0  0  0  0
  2  1  1  0  0  0  0
  3  2  1  0  0  0  0
  4  1  2  0  0  0  0
  5  1  1  0  0  0  0
  6  1  1  0  0  0  0
  7  3  2  0  0  0  0
  8  3  1  0  0  0  0
  9  2  1  0  0  0  0
 10  6  1  0  0  0  0
 11  5  2  0  0  0  0
 12  5  1  0  0  0  0
 13  6  2  0  0  0  0
 14  8  1  0  0  0  0
 15 14  1  0  0  0  0
 16 10  2  0  0  0  0
 17 12  2  0  0  0  0
 18 13  1  0  0  0  0
 19 11  1  0  0  0  0
 20 17  1  0  0  0  0
 21 18  2  0  0  0  0
 16 21  1  0  0  0  0
 20 19  2  0  0  0  0
M  END
>  <ID> (5311775)
5311775

>  <Supplier> (5311775)
ChemBridge

>  <clogP> (5311775)
4.540000000000000e+000

>  <RB> (5311775)
4

>  <tPSA> (5311775)
4.337000000000000e+001

>  <Hacc> (5311775)
3

>  <Hdon> (5311775)
0

>  <LogSw> (5311775)
-5.282000000000000e+000

>  <Group> (5311775)
1

$$$$
9081953
  -ISIS-  03310818292D

 17 18  0  0  0  0  0  0  0  0999 V2000
    2.9792    1.0125    0.0000 S   0  0  3  0  0  0  0  0  0  0  0  0
    1.8542    1.6625    0.0000 C   0  0  0  0  0  0  0  0  0  0  0  0
    2.6042    1.6625    0.0000 C   0  0  0  0  0  0  0  0  0  0  0  0
    3.7042    1.2083    0.0000 N   0  0  3  0  0  0  0  0  0  0  0  0
    2.3042    0.6958    0.0000 O   0  0  0  0  0  0  0  0  0  0  0  0
    3.2375    0.3083    0.0000 O   0  0  0  0  0  0  0  0  0  0  0  0
    1.4792    2.3125    0.0000 C   0  0  0  0  0  0  0  0  0  0  0  0
    1.4792    1.0125    0.0000 C   0  0  0  0  0  0  0  0  0  0  0  0
    1.8542    0.3625    0.0000 F   0  0  0  0  0  0  0  0  0  0  0  0
    1.8542    2.9625    0.0000 Cl  0  0  0  0  0  0  0  0  0  0  0  0
    4.2875    0.7333    0.0000 C   0  0  0  0  0  0  0  0  0  0  0  0
    3.9750    1.9083    0.0000 C   0  0  0  0  0  0  0  0  0  0  0  0
    0.3542    1.6625    0.0000 C   0  0  0  0  0  0  0  0  0  0  0  0
    0.7292    2.3125    0.0000 C   0  0  0  0  0  0  0  0  0  0  0  0
    0.7292    1.0125    0.0000 C   0  0  0  0  0  0  0  0  0  0  0  0
    4.7250    1.8708    0.0000 C   0  0  0  0  0  0  0  0  0  0  0  0
    4.9167    1.1458    0.0000 C   0  0  0  0  0  0  0  0  0  0  0  0
  2  3  1  0  0  0  0
  3  1  1  0  0  0  0
  4  1  1  0  0  0  0
  5  1  2  0  0  0  0
  6  1  2  0  0  0  0
  7  2  2  0  0  0  0
  8  2  1  0  0  0  0
  9  8  1  0  0  0  0
 10  7  1  0  0  0  0
 11  4  1  0  0  0  0
 12  4  1  0  0  0  0
 13 15  1  0  0  0  0
 14  7  1  0  0  0  0
 15  8  2  0  0  0  0
 16 12  1  0  0  0  0
 17 11  1  0  0  0  0
 17 16  1  0  0  0  0
 14 13  2  0  0  0  0
M  END
>  <ID> (9081953)
9081953

>  <Supplier> (9081953)
ChemBridge

>  <clogP> (9081953)
2.686000000000000e+000

>  <RB> (9081953)
2

>  <tPSA> (9081953)
3.738000000000000e+001

>  <Hacc> (9081953)
3

>  <Hdon> (9081953)
0

>  <LogSw> (9081953)
-3.520000000000000e+000

>  <Group> (9081953)
2

$$$$
5766600
  -ISIS-  03310818222D

 21 23  0  0  0  0  0  0  0  0999 V2000
    4.3542   -4.2792    0.0000 N   0  0  3  0  0  0  0  0  0  0  0  0
    4.6167   -5.0542    0.0000 C   0  0  0  0  0  0  0  0  0  0  0  0
    3.2875   -5.0667    0.0000 C   0  0  0  0  0  0  0  0  0  0  0  0
    3.5375   -4.2875    0.0000 C   0  0  0  0  0  0  0  0  0  0  0  0
    3.9542   -5.5542    0.0000 S   0  0  0  0  0  0  0  0  0  0  0  0
    2.5000   -5.3375    0.0000 C   0  0  0  0  0  0  0  0  0  0  0  0
    2.3500   -6.1500    0.0000 C   0  0  0  0  0  0  0  0  0  0  0  0
    1.6875   -7.3042    0.0000 C   0  0  0  0  0  0  0  0  0  0  0  0
    1.6000   -6.4875    0.0000 O   0  0  0  0  0  0  0  0  0  0  0  0
    4.8500   -3.6042    0.0000 C   0  0  0  0  0  0  0  0  0  0  0  0
    5.4042   -5.3042    0.0000 S   0  0  0  0  0  0  0  0  0  0  0  0
    2.5000   -7.4667    0.0000 C   0  0  0  0  0  0  0  0  0  0  0  0
    2.9000   -6.7500    0.0000 C   0  0  0  0  0  0  0  0  0  0  0  0
    3.0500   -3.6167    0.0000 O   0  0  0  0  0  0  0  0  0  0  0  0
    5.6542   -3.7000    0.0000 C   0  0  0  0  0  0  0  0  0  0  0  0
    4.5000   -2.8542    0.0000 C   0  0  0  0  0  0  0  0  0  0  0  0
    1.0792   -7.8542    0.0000 I   0  0  0  0  0  0  0  0  0  0  0  0
    5.8000   -2.2667    0.0000 C   0  0  0  0  0  0  0  0  0  0  0  0
    6.1375   -3.0167    0.0000 C   0  0  0  0  0  0  0  0  0  0  0  0
    4.9667   -2.2000    0.0000 C   0  0  0  0  0  0  0  0  0  0  0  0
    6.2667   -1.6000    0.0000 Cl  0  0  0  0  0  0  0  0  0  0  0  0
  2  1  1  0  0  0  0
  3  4  1  0  0  0  0
  4  1  1  0  0  0  0
  5  2  1  0  0  0  0
  6  3  2  0  0  0  0
  7  6  1  0  0  0  0
  8  9  1  0  0  0  0
  9  7  1  0  0  0  0
 10  1  1  0  0  0  0
 11  2  2  0  0  0  0
 12 13  1  0  0  0  0
 13  7  2  0  0  0  0
 14  4  2  0  0  0  0
 15 10  2  0  0  0  0
 16 10  1  0  0  0  0
 17  8  1  0  0  0  0
 18 20  1  0  0  0  0
 19 15  1  0  0  0  0
 20 16  2  0  0  0  0
 21 18  1  0  0  0  0
  3  5  1  0  0  0  0
 19 18  2  0  0  0  0
  8 12  2  0  0  0  0
M  END
>  <ID> (5766600)
5766600

>  <Supplier> (5766600)
ChemBridge

>  <clogP> (5766600)
5.020000000000000e+000

>  <RB> (5766600)
2

>  <tPSA> (5766600)
3.345000000000000e+001

>  <Hacc> (5766600)
2

>  <Hdon> (5766600)
0

>  <LogSw> (5766600)
-6.750000000000000e+000

>  <Group> (5766600)
1

>  <Core> (5766600)
001

$$$$
7998049
  -ISIS-  03310818282D

 19 20  0  0  0  0  0  0  0  0999 V2000
    6.9167    3.6458    0.0000 S   0  0  0  0  0  0  0  0  0  0  0  0
    6.4750    3.0333    0.0000 C   0  0  0  0  0  0  0  0  0  0  0  0
    7.6292    3.4083    0.0000 C   0  0  0  0  0  0  0  0  0  0  0  0
    4.6000    2.3833    0.0000 C   0  0  0  0  0  0  0  0  0  0  0  0
    6.9167    2.4250    0.0000 C   0  0  0  0  0  0  0  0  0  0  0  0
    7.6292    2.6583    0.0000 C   0  0  0  0  0  0  0  0  0  0  0  0
    4.2250    1.7333    0.0000 N   0  0  0  0  0  0  0  0  0  0  0  0
    2.3500    2.3833    0.0000 C   0  0  0  0  0  0  0  0  0  0  0  0
    3.4750    1.7333    0.0000 C   0  0  0  0  0  0  0  0  0  0  0  0
    3.1000    2.3833    0.0000 C   0  0  0  0  0  0  0  0  0  0  0  0
    1.9750    1.7333    0.0000 C   0  0  0  0  0  0  0  0  0  0  0  0
    4.2250    3.0333    0.0000 O   0  0  0  0  0  0  0  0  0  0  0  0
    2.3500    1.0833    0.0000 C   0  0  0  0  0  0  0  0  0  0  0  0
    5.7250    3.0333    0.0000 C   0  0  0  0  0  0  0  0  0  0  0  0
    5.3500    2.3833    0.0000 C   0  0  0  0  0  0  0  0  0  0  0  0
    3.1000    1.0833    0.0000 C   0  0  0  0  0  0  0  0  0  0  0  0
    8.2375    3.8583    0.0000 C   0  0  0  0  0  0  0  0  0  0  0  0
    1.9750    3.0333    0.0000 C   0  0  0  0  0  0  0  0  0  0  0  0
    1.2250    1.7333    0.0000 C   0  0  0  0  0  0  0  0  0  0  0  0
  2  1  1  0  0  0  0
  3  1  1  0  0  0  0
  4 15  1  0  0  0  0
  5  2  2  0  0  0  0
  6  3  2  0  0  0  0
  7  4  1  0  0  0  0
  8 10  1  0  0  0  0
  9  7  1  0  0  0  0
 10  9  2  0  0  0  0
 11 13  1  0  0  0  0
 12  4  2  0  0  0  0
 13 16  2  0  0  0  0
 14  2  1  0  0  0  0
 15 14  1  0  0  0  0
 16  9  1  0  0  0  0
 17  3  1  0  0  0  0
 18  8  1  0  0  0  0
 19 11  1  0  0  0  0
  5  6  1  0  0  0  0
  8 11  2  0  0  0  0
M  END
>  <ID> (7998049)
7998049

>  <Supplier> (7998049)
ChemBridge

>  <clogP> (7998049)
4.350000000000000e+000

>  <RB> (7998049)
4

>  <tPSA> (7998049)
2.910000000000000e+001

>  <Hacc> (7998049)
1

>  <Hdon> (7998049)
1

>  <LogSw> (7998049)
-4.909000000000002e+000

>  <Group> (7998049)
3

$$$$
9022545
  -ISIS-  03310818282D

 19 20  0  0  0  0  0  0  0  0999 V2000
    4.3000    2.3208    0.0000 C   0  0  0  0  0  0  0  0  0  0  0  0
    3.9250    1.6708    0.0000 N   0  0  0  0  0  0  0  0  0  0  0  0
    5.0500    2.3208    0.0000 C   0  0  0  0  0  0  0  0  0  0  0  0
    3.1750    1.6708    0.0000 C   0  0  0  0  0  0  0  0  0  0  0  0
    1.6750    2.9708    0.0000 C   0  0  0  0  0  0  0  0  0  0  0  0
    2.0500    2.3208    0.0000 C   0  0  0  0  0  0  0  0  0  0  0  0
    2.8000    2.3208    0.0000 C   0  0  0  0  0  0  0  0  0  0  0  0
    5.4917    1.7125    0.0000 S   0  0  0  0  0  0  0  0  0  0  0  0
    2.8000    1.0208    0.0000 C   0  0  0  0  0  0  0  0  0  0  0  0
    5.4917    2.9250    0.0000 C   0  0  0  0  0  0  0  0  0  0  0  0
    3.9250    2.9708    0.0000 O   0  0  0  0  0  0  0  0  0  0  0  0
    6.2042    1.9458    0.0000 C   0  0  0  0  0  0  0  0  0  0  0  0
    2.0500    3.6208    0.0000 O   0  0  0  0  0  0  0  0  0  0  0  0
    1.6750    1.6708    0.0000 C   0  0  0  0  0  0  0  0  0  0  0  0
    6.2042    2.6958    0.0000 C   0  0  0  0  0  0  0  0  0  0  0  0
    2.0500    1.0208    0.0000 C   0  0  0  0  0  0  0  0  0  0  0  0
    0.9250    2.9708    0.0000 O   0  0  0  0  0  0  0  0  0  0  0  0
    3.1750    0.3708    0.0000 Cl  0  0  0  0  0  0  0  0  0  0  0  0
    0.5500    3.6208    0.0000 C   0  0  0  0  0  0  0  0  0  0  0  0
  2  1  1  0  0  0  0
  3  1  1  0  0  0  0
  4  2  1  0  0  0  0
  5  6  1  0  0  0  0
  6  7  2  0  0  0  0
  7  4  1  0  0  0  0
  8  3  1  0  0  0  0
  9  4  2  0  0  0  0
 10  3  2  0  0  0  0
 11  1  2  0  0  0  0
 12  8  1  0  0  0  0
 13  5  2  0  0  0  0
 14 16  2  0  0  0  0
 15 10  1  0  0  0  0
 16  9  1  0  0  0  0
 17  5  1  0  0  0  0
 18  9  1  0  0  0  0
 19 17  1  0  0  0  0
 15 12  2  0  0  0  0
  6 14  1  0  0  0  0
M  END
>  <ID> (9022545)
9022545

>  <Supplier> (9022545)
ChemBridge

>  <clogP> (9022545)
2.753000000000000e+000

>  <RB> (9022545)
3

>  <tPSA> (9022545)
5.540000000000000e+001

>  <Hacc> (9022545)
3

>  <Hdon> (9022545)
1

>  <LogSw> (9022545)
-3.708000000000000e+000

>  <Group> (9022545)
2

>  <Core> (9022545)
148

$$$$
9022543
  -ISIS-  03310818282D

 20 22  0  0  0  0  0  0  0  0999 V2000
    2.3542    2.0875    0.0000 C   0  0  0  0  0  0  0  0  0  0  0  0
    1.9792    1.4375    0.0000 C   0  0  0  0  0  0  0  0  0  0  0  0
    3.1667    1.1833    0.0000 C   0  0  0  0  0  0  0  0  0  0  0  0
    3.0917    1.9333    0.0000 N   0  0  3  0  0  0  0  0  0  0  0  0
    2.4792    0.8833    0.0000 N   0  0  0  0  0  0  0  0  0  0  0  0
    1.2292    1.4375    0.0000 N   0  0  3  0  0  0  0  0  0  0  0  0
    1.2292    2.7375    0.0000 N   0  0  3  0  0  0  0  0  0  0  0  0
    0.8542    2.0875    0.0000 C   0  0  0  0  0  0  0  0  0  0  0  0
    1.9792    2.7375    0.0000 C   0  0  0  0  0  0  0  0  0  0  0  0
    3.9042    1.0333    0.0000 N   0  0  3  0  0  0  0  0  0  0  0  0
    3.7750    2.2375    0.0000 C   0  0  0  0  0  0  0  0  0  0  0  0
    4.2792    1.6833    0.0000 C   0  0  0  0  0  0  0  0  0  0  0  0
    0.1042    2.0875    0.0000 O   0  0  0  0  0  0  0  0  0  0  0  0
    2.3542    3.3958    0.0000 O   0  0  0  0  0  0  0  0  0  0  0  0
    0.8542    0.7875    0.0000 C   0  0  0  0  0  0  0  0  0  0  0  0
    0.8542    3.3958    0.0000 C   0  0  0  0  0  0  0  0  0  0  0  0
    4.2042    0.3458    0.0000 C   0  0  0  0  0  0  0  0  0  0  0  0
    3.9292    2.9708    0.0000 C   0  0  0  0  0  0  0  0  0  0  0  0
    5.0250    1.7583    0.0000 C   0  0  0  0  0  0  0  0  0  0  0  0
    4.9542    0.2708    0.0000 C   0  0  0  0  0  0  0  0  0  0  0  0
  2  1  2  0  0  0  0
  3  4  1  0  0  0  0
  4  1  1  0  0  0  0
  5  2  1  0  0  0  0
  6  2  1  0  0  0  0
  7  9  1  0  0  0  0
  8  7  1  0  0  0  0
  9  1  1  0  0  0  0
 10  3  1  0  0  0  0
 11  4  1  0  0  0  0
 12 11  2  0  0  0  0
 13  8  2  0  0  0  0
 14  9  2  0  0  0  0
 15  6  1  0  0  0  0
 16  7  1  0  0  0  0
 17 10  1  0  0  0  0
 18 11  1  0  0  0  0
 19 12  1  0  0  0  0
 20 17  1  0  0  0  0
  5  3  2  0  0  0  0
  6  8  1  0  0  0  0
 12 10  1  0  0  0  0
M  END
>  <ID> (9022543)
9022543

>  <Supplier> (9022543)
ChemBridge

>  <clogP> (9022543)
1.374000000000000e+000

>  <RB> (9022543)
0

>  <tPSA> (9022543)
6.622999999999995e+001

>  <Hacc> (9022543)
3

>  <Hdon> (9022543)
0

>  <LogSw> (9022543)
-2.374000000000000e+000

>  <Group> (9022543)
2

>  <Core> (9022543)
131

$$$$
9022542
  -ISIS-  03310818282D

 21 22  0  0  0  0  0  0  0  0999 V2000
    1.2000    1.3583    0.0000 C   0  0  0  0  0  0  0  0  0  0  0  0
    1.8500    0.9833    0.0000 N   0  0  0  0  0  0  0  0  0  0  0  0
    2.5000    1.3583    0.0000 C   0  0  0  0  0  0  0  0  0  0  0  0
    3.1417    0.9833    0.0000 N   0  0  0  0  0  0  0  0  0  0  0  0
    0.5500    0.9833    0.0000 C   0  0  0  0  0  0  0  0  0  0  0  0
   -2.0500    0.9833    0.0000 C   0  0  0  0  0  0  0  0  0  0  0  0
   -1.4000    1.3583    0.0000 N   0  0  0  0  0  0  0  0  0  0  0  0
    1.2000    2.1083    0.0000 O   0  0  0  0  0  0  0  0  0  0  0  0
   -0.1000    1.3583    0.0000 C   0  0  0  0  0  0  0  0  0  0  0  0
   -0.7500    0.9833    0.0000 C   0  0  0  0  0  0  0  0  0  0  0  0
   -2.0500    0.2333    0.0000 O   0  0  0  0  0  0  0  0  0  0  0  0
    3.7917    1.3583    0.0000 C   0  0  0  0  0  0  0  0  0  0  0  0
    3.7917    2.1083    0.0000 C   0  0  0  0  0  0  0  0  0  0  0  0
    2.5000    2.1083    0.0000 C   0  0  0  0  0  0  0  0  0  0  0  0
    4.4417    2.4833    0.0000 Cl  0  0  0  0  0  0  0  0  0  0  0  0
    3.1417    2.4833    0.0000 C   0  0  0  0  0  0  0  0  0  0  0  0
    0.5500    0.2333    0.0000 C   0  0  0  0  0  0  0  0  0  0  0  0
   -0.1000   -0.1417    0.0000 C   0  0  0  0  0  0  0  0  0  0  0  0
   -2.7000    1.3583    0.0000 C   0  0  0  0  0  0  0  0  0  0  0  0
   -0.7500    0.2333    0.0000 C   0  0  0  0  0  0  0  0  0  0  0  0
   -3.3458    0.9833    0.0000 C   0  0  0  0  0  0  0  0  0  0  0  0
  2  1  1  0  0  0  0
  3  2  1  0  0  0  0
  4  3  1  0  0  0  0
  5  1  1  0  0  0  0
  6  7  1  0  0  0  0
  7 10  1  0  0  0  0
  8  1  2  0  0  0  0
  9  5  2  0  0  0  0
 10  9  1  0  0  0  0
 11  6  2  0  0  0  0
 12  4  2  0  0  0  0
 13 16  2  0  0  0  0
 14  3  2  0  0  0  0
 15 13  1  0  0  0  0
 16 14  1  0  0  0  0
 17  5  1  0  0  0  0
 18 17  2  0  0  0  0
 19  6  1  0  0  0  0
 20 18  1  0  0  0  0
 21 19  1  0  0  0  0
 10 20  2  0  0  0  0
 12 13  1  0  0  0  0
M  END
>  <ID> (9022542)
9022542

>  <Supplier> (9022542)
ChemBridge

>  <clogP> (9022542)
2.652000000000000e+000

>  <RB> (9022542)
3

>  <tPSA> (9022542)
7.109000000000000e+001

>  <Hacc> (9022542)
3

>  <Hdon> (9022542)
2

>  <LogSw> (9022542)
-3.680000000000000e+000

>  <Group> (9022542)
2

>  <Core> (9022542)
146

$$$$
5311779
  -ISIS-  03310818212D

 15 15  0  0  0  0  0  0  0  0999 V2000
   -4.0000   -0.1292    0.0000 N   0  3  0  0  0  0  0  0  0  0  0  0
   -3.1833   -0.1292    0.0000 C   0  0  3  0  0  0  0  0  0  0  0  0
   -1.9333    0.5958    0.0000 N   0  0  0  0  0  0  0  0  0  0  0  0
   -2.7708    0.5958    0.0000 C   0  0  0  0  0  0  0  0  0  0  0  0
   -0.6958    1.3000    0.0000 N   0  0  0  0  0  0  0  0  0  0  0  0
   -1.5208    1.3000    0.0000 C   0  0  0  0  0  0  0  0  0  0  0  0
   -4.4833    0.5500    0.0000 O   0  5  0  0  0  0  0  0  0  0  0  0
   -4.4583   -0.8042    0.0000 O   0  0  0  0  0  0  0  0  0  0  0  0
   -2.7708   -0.8500    0.0000 C   0  0  0  0  0  0  0  0  0  0  0  0
   -3.1833   -1.5667    0.0000 O   0  0  0  0  0  0  0  0  0  0  0  0
   -0.2833    2.0208    0.0000 C   0  0  0  0  0  0  0  0  0  0  0  0
   -0.7000    2.7458    0.0000 C   0  0  0  0  0  0  0  0  0  0  0  0
   -1.9333    2.0208    0.0000 C   0  0  0  0  0  0  0  0  0  0  0  0
   -0.3000    3.4625    0.0000 Cl  0  0  0  0  0  0  0  0  0  0  0  0
   -1.5333    2.7458    0.0000 C   0  0  0  0  0  0  0  0  0  0  0  0
  2  1  1  0  0  0  0
  3  4  2  0  0  0  0
  4  2  1  0  0  0  0
  5  6  2  0  0  0  0
  6  3  1  0  0  0  0
  7  1  1  0  0  0  0
  8  1  2  0  0  0  0
  9  2  1  0  0  0  0
 10  9  2  0  0  0  0
 11  5  1  0  0  0  0
 12 15  1  0  0  0  0
 13  6  1  0  0  0  0
 14 12  1  0  0  0  0
 15 13  2  0  0  0  0
 12 11  2  0  0  0  0
M  CHG  2   1   1   7  -1
M  END
>  <ID> (5311779)
5311779

>  <Supplier> (5311779)
ChemBridge

>  <clogP> (5311779)
-4.300000000000000e-001

>  <RB> (5311779)
3

>  <tPSA> (5311779)
8.546000000000001e+001

>  <Hacc> (5311779)
5

>  <Hdon> (5311779)
0

>  <LogSw> (5311779)
-8.840000000000000e-001

>  <Group> (5311779)
1

>  <Core> (5311779)
464

$$$$
5311778
  -ISIS-  03310818212D

 29 32  0  0  0  0  0  0  0  0999 V2000
    0.6792    1.3333    0.0000 N   0  0  0  0  0  0  0  0  0  0  0  0
    0.1375    1.5708    0.0000 C   0  0  0  0  0  0  0  0  0  0  0  0
   -1.6625   -0.2875    0.0000 C   0  0  0  0  0  0  0  0  0  0  0  0
   -1.9833   -0.8042    0.0000 N   0  3  0  0  0  0  0  0  0  0  0  0
   -0.4000    1.2708    0.0000 C   0  0  0  0  0  0  0  0  0  0  0  0
    1.0792    1.7708    0.0000 C   0  0  0  0  0  0  0  0  0  0  0  0
    0.2000    2.1708    0.0000 S   0  0  0  0  0  0  0  0  0  0  0  0
   -1.0625   -0.2292    0.0000 O   0  0  0  0  0  0  0  0  0  0  0  0
   -0.4208    0.6708    0.0000 C   0  0  0  0  0  0  0  0  0  0  0  0
   -0.9458    0.3708    0.0000 C   0  0  0  0  0  0  0  0  0  0  0  0
    0.7792    2.2958    0.0000 C   0  0  0  0  0  0  0  0  0  0  0  0
   -1.9083    0.2708    0.0000 C   0  0  0  0  0  0  0  0  0  0  0  0
   -0.9208    1.5708    0.0000 C   0  0  0  0  0  0  0  0  0  0  0  0
   -1.4625    1.8958    0.0000 N   0  0  0  0  0  0  0  0  0  0  0  0
   -1.4625    0.6708    0.0000 C   0  0  0  0  0  0  0  0  0  0  0  0
   -2.5833   -0.7875    0.0000 O   0  5  0  0  0  0  0  0  0  0  0  0
    1.6792    1.7708    0.0000 C   0  0  0  0  0  0  0  0  0  0  0  0
   -1.7000   -1.3500    0.0000 O   0  0  0  0  0  0  0  0  0  0  0  0
    2.8792    1.7708    0.0000 C   0  0  0  0  0  0  0  0  0  0  0  0
    1.9792    1.2500    0.0000 C   0  0  0  0  0  0  0  0  0  0  0  0
    1.9792    2.2958    0.0000 C   0  0  0  0  0  0  0  0  0  0  0  0
    2.5792    1.2500    0.0000 C   0  0  0  0  0  0  0  0  0  0  0  0
    2.5792    2.2958    0.0000 C   0  0  0  0  0  0  0  0  0  0  0  0
    3.4792    1.7708    0.0000 C   0  0  0  0  0  0  0  0  0  0  0  0
    3.7875    2.2958    0.0000 C   0  0  0  0  0  0  0  0  0  0  0  0
    3.7875    1.2500    0.0000 C   0  0  0  0  0  0  0  0  0  0  0  0
    4.3875    1.2500    0.0000 C   0  0  0  0  0  0  0  0  0  0  0  0
    4.3875    2.2958    0.0000 C   0  0  0  0  0  0  0  0  0  0  0  0
    4.7000    1.7708    0.0000 C   0  0  0  0  0  0  0  0  0  0  0  0
  2  1  2  0  0  0  0
  3  8  1  0  0  0  0
  4  3  1  0  0  0  0
  5  2  1  0  0  0  0
  6  1  1  0  0  0  0
  7  2  1  0  0  0  0
  8 10  1  0  0  0  0
  9  5  2  0  0  0  0
 10  9  1  0  0  0  0
 11  6  2  0  0  0  0
 12 15  1  0  0  0  0
 13  5  1  0  0  0  0
 14 13  3  0  0  0  0
 15 10  2  0  0  0  0
 16  4  1  0  0  0  0
 17  6  1  0  0  0  0
 18  4  2  0  0  0  0
 19 23  2  0  0  0  0
 20 17  1  0  0  0  0
 21 17  2  0  0  0  0
 22 20  2  0  0  0  0
 23 21  1  0  0  0  0
 24 19  1  0  0  0  0
 25 24  2  0  0  0  0
 26 24  1  0  0  0  0
 27 26  2  0  0  0  0
 28 25  1  0  0  0  0
 29 27  1  0  0  0  0
 11  7  1  0  0  0  0
 19 22  1  0  0  0  0
 12  3  2  0  0  0  0
 29 28  2  0  0  0  0
M  CHG  2   4   1  16  -1
M  END
>  <ID> (5311778)
5311778

>  <Supplier> (5311778)
ChemBridge

>  <clogP> (5311778)
4.700000000000000e+000

>  <RB> (5311778)
4

>  <tPSA> (5311778)
9.296000000000001e+001

>  <Hacc> (5311778)
5

>  <Hdon> (5311778)
0

>  <LogSw> (5311778)
-6.781000000000002e+000

>  <Group> (5311778)
2

>  <Core> (5311778)
111

$$$$
6095955
  -ISIS-  03310818232D

 22 23  0  0  0  0  0  0  0  0999 V2000
   -1.0958    0.8000    0.0000 C   0  0  0  0  0  0  0  0  0  0  0  0
   -1.5458    0.0000    0.0000 C   0  0  0  0  0  0  0  0  0  0  0  0
   -0.1708    0.8125    0.0000 C   0  0  0  0  0  0  0  0  0  0  0  0
    2.6042    0.8833    0.0000 C   0  0  0  0  0  0  0  0  0  0  0  0
    1.7000    0.8333    0.0000 C   0  0  0  0  0  0  0  0  0  0  0  0
    0.2792    1.6125    0.0000 N   0  0  0  0  0  0  0  0  0  0  0  0
   -2.4708    0.0000    0.0000 C   0  0  0  0  0  0  0  0  0  0  0  0
    1.2000    1.6208    0.0000 C   0  0  0  0  0  0  0  0  0  0  0  0
    3.0292    1.7000    0.0000 C   0  0  0  0  0  0  0  0  0  0  0  0
   -1.0708   -0.8000    0.0000 O   0  0  0  0  0  0  0  0  0  0  0  0
    2.5500    2.4708    0.0000 C   0  0  0  0  0  0  0  0  0  0  0  0
   -2.9458    0.8125    0.0000 C   0  0  0  0  0  0  0  0  0  0  0  0
   -2.9500   -0.8042    0.0000 C   0  0  0  0  0  0  0  0  0  0  0  0
    3.1000    0.1125    0.0000 Cl  0  0  0  0  0  0  0  0  0  0  0  0
    1.6042    2.4208    0.0000 C   0  0  0  0  0  0  0  0  0  0  0  0
    3.9500    1.7500    0.0000 Br  0  0  0  0  0  0  0  0  0  0  0  0
   -4.3500    0.0000    0.0000 C   0  0  0  0  0  0  0  0  0  0  0  0
   -3.8708    0.8125    0.0000 C   0  0  0  0  0  0  0  0  0  0  0  0
   -3.8833   -0.8042    0.0000 C   0  0  0  0  0  0  0  0  0  0  0  0
   -5.2708    0.0000    0.0000 O   0  0  0  0  0  0  0  0  0  0  0  0
    0.3000    0.0208    0.0000 C   0  0  0  0  0  0  0  0  0  0  0  0
   -5.7208    0.7833    0.0000 C   0  0  0  0  0  0  0  0  0  0  0  0
  2  1  1  0  0  0  0
  3  1  2  0  0  0  0
  4  5  1  0  0  0  0
  5  8  2  0  0  0  0
  6  3  1  0  0  0  0
  7  2  1  0  0  0  0
  8  6  1  0  0  0  0
  9 11  1  0  0  0  0
 10  2  2  0  0  0  0
 11 15  2  0  0  0  0
 12  7  1  0  0  0  0
 13  7  2  0  0  0  0
 14  4  1  0  0  0  0
 15  8  1  0  0  0  0
 16  9  1  0  0  0  0
 17 19  2  0  0  0  0
 18 12  2  0  0  0  0
 19 13  1  0  0  0  0
 20 17  1  0  0  0  0
 21  3  1  0  0  0  0
 22 20  1  0  0  0  0
 18 17  1  0  0  0  0
  9  4  2  0  0  0  0
M  END
>  <ID> (6095955)
6095955

>  <Supplier> (6095955)
ChemBridge

>  <clogP> (6095955)
5.870000000000000e+000

>  <RB> (6095955)
4

>  <tPSA> (6095955)
3.833000000000000e+001

>  <Hacc> (6095955)
2

>  <Hdon> (6095955)
1

>  <LogSw> (6095955)
-6.988000000000000e+000

>  <Group> (6095955)
1

>  <Core> (6095955)
208

$$$$
7995441
  -ISIS-  03310818282D

 16 17  0  0  0  0  0  0  0  0999 V2000
    3.0667    1.8250    0.0000 N   0  0  3  0  0  0  0  0  0  0  0  0
    3.4417    1.1750    0.0000 C   0  0  0  0  0  0  0  0  0  0  0  0
    4.1917    1.1750    0.0000 C   0  0  0  0  0  0  0  0  0  0  0  0
    3.4417    2.4750    0.0000 N   0  0  0  0  0  0  0  0  0  0  0  0
    4.5667    1.8250    0.0000 C   0  0  0  0  0  0  0  0  0  0  0  0
    4.1917    2.4750    0.0000 C   0  0  0  0  0  0  0  0  0  0  0  0
    2.3167    1.8250    0.0000 C   0  0  0  0  0  0  0  0  0  0  0  0
    3.0667    0.5250    0.0000 O   0  0  0  0  0  0  0  0  0  0  0  0
    4.5667    0.5250    0.0000 Cl  0  0  0  0  0  0  0  0  0  0  0  0
    1.9417    2.4750    0.0000 C   0  0  0  0  0  0  0  0  0  0  0  0
    5.3167    1.8250    0.0000 Cl  0  0  0  0  0  0  0  0  0  0  0  0
    1.9417    1.1750    0.0000 C   0  0  0  0  0  0  0  0  0  0  0  0
    2.3167    3.1250    0.0000 C   0  0  0  0  0  0  0  0  0  0  0  0
    1.1917    2.4750    0.0000 C   0  0  0  0  0  0  0  0  0  0  0  0
    1.1917    1.1750    0.0000 C   0  0  0  0  0  0  0  0  0  0  0  0
    0.8167    1.8250    0.0000 C   0  0  0  0  0  0  0  0  0  0  0  0
  2  1  1  0  0  0  0
  3  2  1  0  0  0  0
  4  1  1  0  0  0  0
  5  6  1  0  0  0  0
  6  4  2  0  0  0  0
  7  1  1  0  0  0  0
  8  2  2  0  0  0  0
  9  3  1  0  0  0  0
 10  7  2  0  0  0  0
 11  5  1  0  0  0  0
 12  7  1  0  0  0  0
 13 10  1  0  0  0  0
 14 10  1  0  0  0  0
 15 12  2  0  0  0  0
 16 15  1  0  0  0  0
  3  5  2  0  0  0  0
 14 16  2  0  0  0  0
M  END
>  <ID> (7995441)
7995441

>  <Supplier> (7995441)
ChemBridge

>  <clogP> (7995441)
2.550000000000000e+000

>  <RB> (7995441)
1

>  <tPSA> (7995441)
3.489000000000000e+001

>  <Hacc> (7995441)
2

>  <Hdon> (7995441)
0

>  <LogSw> (7995441)
-3.239000000000000e+000

>  <Group> (7995441)
2

>  <Core> (7995441)
179

$$$$
7386195
  -ISIS-  03310818262D

 31 34  0  0  0  0  0  0  0  0999 V2000
    2.6667   -3.3042    0.0000 C   0  0  0  0  0  0  0  0  0  0  0  0
    1.2625   -3.1625    0.0000 N   0  0  3  0  0  0  0  0  0  0  0  0
    1.1792   -3.9750    0.0000 C   0  0  0  0  0  0  0  0  0  0  0  0
    2.0042   -2.8167    0.0000 C   0  0  0  0  0  0  0  0  0  0  0  0
    1.8417   -4.4417    0.0000 N   0  0  0  0  0  0  0  0  0  0  0  0
    2.5875   -4.1167    0.0000 C   0  0  0  0  0  0  0  0  0  0  0  0
    4.0917   -3.4542    0.0000 C   0  0  0  0  0  0  0  0  0  0  0  0
    5.3917   -3.8625    0.0000 N   0  0  3  0  0  0  0  0  0  0  0  0
    3.4125   -2.9667    0.0000 C   0  0  0  0  0  0  0  0  0  0  0  0
    4.8917   -4.5417    0.0000 C   0  0  0  0  0  0  0  0  0  0  0  0
    4.8875   -3.1875    0.0000 C   0  0  0  0  0  0  0  0  0  0  0  0
    4.1042   -4.2917    0.0000 C   0  0  0  0  0  0  0  0  0  0  0  0
    8.7292   -3.8292    0.0000 N   0  0  3  0  0  0  0  0  0  0  0  0
    0.4375   -4.3125    0.0000 S   0  0  0  0  0  0  0  0  0  0  0  0
    6.2292   -3.8542    0.0000 C   0  0  0  0  0  0  0  0  0  0  0  0
    2.0917   -2.0042    0.0000 O   0  0  0  0  0  0  0  0  0  0  0  0
    7.9000   -3.8417    0.0000 C   0  0  0  0  0  0  0  0  0  0  0  0
    3.2417   -4.5917    0.0000 O   0  0  0  0  0  0  0  0  0  0  0  0
    6.6292   -3.1250    0.0000 C   0  0  0  0  0  0  0  0  0  0  0  0
    6.6500   -4.5792    0.0000 C   0  0  0  0  0  0  0  0  0  0  0  0
    7.4875   -4.5667    0.0000 C   0  0  0  0  0  0  0  0  0  0  0  0
    7.4667   -3.1167    0.0000 C   0  0  0  0  0  0  0  0  0  0  0  0
    0.5917   -2.6875    0.0000 C   0  0  0  0  0  0  0  0  0  0  0  0
   10.3792   -3.8167    0.0000 O   0  0  0  0  0  0  0  0  0  0  0  0
    5.1667   -5.3375    0.0000 C   0  0  0  0  0  0  0  0  0  0  0  0
    5.1417   -2.3875    0.0000 C   0  0  0  0  0  0  0  0  0  0  0  0
    9.1417   -4.5500    0.0000 C   0  0  0  0  0  0  0  0  0  0  0  0
    9.1292   -3.1042    0.0000 C   0  0  0  0  0  0  0  0  0  0  0  0
    9.9625   -3.1042    0.0000 C   0  0  0  0  0  0  0  0  0  0  0  0
    9.9667   -4.5417    0.0000 C   0  0  0  0  0  0  0  0  0  0  0  0
   -0.1583   -3.0292    0.0000 C   0  0  0  0  0  0  0  0  0  0  0  0
  2  4  1  0  0  0  0
  3  5  1  0  0  0  0
  4  1  1  0  0  0  0
  5  6  1  0  0  0  0
  6  1  1  0  0  0  0
  7  9  1  0  0  0  0
  8 11  1  0  0  0  0
  9  1  2  0  0  0  0
 10 12  2  0  0  0  0
 11  7  2  0  0  0  0
 12  7  1  0  0  0  0
 13 17  1  0  0  0  0
 14  3  2  0  0  0  0
 15  8  1  0  0  0  0
 16  4  2  0  0  0  0
 17 21  2  0  0  0  0
 18  6  2  0  0  0  0
 19 15  1  0  0  0  0
 20 15  2  0  0  0  0
 21 20  1  0  0  0  0
 22 19  2  0  0  0  0
 23  2  1  0  0  0  0
 24 29  1  0  0  0  0
 25 10  1  0  0  0  0
 26 11  1  0  0  0  0
 27 13  1  0  0  0  0
 28 13  1  0  0  0  0
 29 28  1  0  0  0  0
 30 27  1  0  0  0  0
 31 23  1  0  0  0  0
  3  2  1  0  0  0  0
  8 10  1  0  0  0  0
 17 22  1  0  0  0  0
 24 30  1  0  0  0  0
M  END
>  <ID> (7386195)
7386195

>  <Supplier> (7386195)
ChemBridge

>  <clogP> (7386195)
3.889000000000000e+000

>  <RB> (7386195)
3

>  <tPSA> (7386195)
6.681000000000000e+001

>  <Hacc> (7386195)
4

>  <Hdon> (7386195)
1

>  <LogSw> (7386195)
-5.726000000000000e+000

>  <Group> (7386195)
2

>  <Core> (7386195)
007

$$$$
7213955
  -ISIS-  03310818262D

 23 24  0  0  0  0  0  0  0  0999 V2000
    8.7792   -1.4917    0.0000 N   0  3  0  0  0  0  0  0  0  0  0  0
    6.6167   -6.8417    0.0000 C   0  0  0  0  0  0  0  0  0  0  0  0
    6.6167   -7.6750    0.0000 C   0  0  0  0  0  0  0  0  0  0  0  0
    7.3375   -6.4375    0.0000 N   0  0  0  0  0  0  0  0  0  0  0  0
    5.9125   -6.4375    0.0000 C   0  0  0  0  0  0  0  0  0  0  0  0
    8.7792   -2.3167    0.0000 C   0  0  0  0  0  0  0  0  0  0  0  0
    8.0500   -6.0167    0.0000 C   0  0  0  0  0  0  0  0  0  0  0  0
    9.5042   -1.0792    0.0000 O   0  5  0  0  0  0  0  0  0  0  0  0
    8.0667   -1.0750    0.0000 O   0  0  0  0  0  0  0  0  0  0  0  0
    5.9042   -8.0792    0.0000 C   0  0  0  0  0  0  0  0  0  0  0  0
    5.2000   -6.8417    0.0000 C   0  0  0  0  0  0  0  0  0  0  0  0
    5.1917   -7.6667    0.0000 C   0  0  0  0  0  0  0  0  0  0  0  0
    8.7542   -6.4292    0.0000 O   0  0  0  0  0  0  0  0  0  0  0  0
    8.0625   -2.7250    0.0000 C   0  0  0  0  0  0  0  0  0  0  0  0
    9.4917   -2.7375    0.0000 C   0  0  0  0  0  0  0  0  0  0  0  0
    7.3292   -8.0875    0.0000 Cl  0  0  0  0  0  0  0  0  0  0  0  0
    8.7625   -4.7917    0.0000 O   0  0  0  0  0  0  0  0  0  0  0  0
    8.0417   -5.2000    0.0000 C   0  0  0  0  0  0  0  0  0  0  0  0
    8.7667   -3.9667    0.0000 C   0  0  0  0  0  0  0  0  0  0  0  0
    9.4875   -3.5625    0.0000 C   0  0  0  0  0  0  0  0  0  0  0  0
    8.0542   -3.5542    0.0000 C   0  0  0  0  0  0  0  0  0  0  0  0
    5.9125   -5.6125    0.0000 C   0  0  0  0  0  0  0  0  0  0  0  0
    4.4792   -8.0750    0.0000 C   0  0  0  0  0  0  0  0  0  0  0  0
  2  4  1  0  0  0  0
  3  2  1  0  0  0  0
  4  7  1  0  0  0  0
  5  2  2  0  0  0  0
  6  1  1  0  0  0  0
  7 18  1  0  0  0  0
  8  1  1  0  0  0  0
  9  1  2  0  0  0  0
 10  3  2  0  0  0  0
 11  5  1  0  0  0  0
 12 11  2  0  0  0  0
 13  7  2  0  0  0  0
 14  6  2  0  0  0  0
 15  6  1  0  0  0  0
 16  3  1  0  0  0  0
 17 19  1  0  0  0  0
 18 17  1  0  0  0  0
 19 20  1  0  0  0  0
 20 15  2  0  0  0  0
 21 14  1  0  0  0  0
 22  5  1  0  0  0  0
 23 12  1  0  0  0  0
 19 21  2  0  0  0  0
 10 12  1  0  0  0  0
M  CHG  2   1   1   8  -1
M  END
>  <ID> (7213955)
7213955

>  <Supplier> (7213955)
ChemBridge

>  <clogP> (7213955)
3.180000000000000e+000

>  <RB> (7213955)
4

>  <tPSA> (7213955)
8.147000000000000e+001

>  <Hacc> (7213955)
4

>  <Hdon> (7213955)
1

>  <LogSw> (7213955)
-4.747000000000000e+000

>  <Group> (7213955)
1

>  <Core> (7213955)
315

$$$$
7585003
  -ISIS-  03310818262D

 31 33  0  0  0  0  0  0  0  0999 V2000
    2.8917   -0.5875    0.0000 S   0  0  3  0  0  0  0  0  0  0  0  0
    6.5917   -1.8542    0.0000 S   0  0  3  0  0  0  0  0  0  0  0  0
    2.1417   -0.1542    0.0000 C   0  0  0  0  0  0  0  0  0  0  0  0
    2.1500    0.7083    0.0000 C   0  0  0  0  0  0  0  0  0  0  0  0
    1.4042    1.1333    0.0000 C   0  0  0  0  0  0  0  0  0  0  0  0
    3.6292   -0.1542    0.0000 N   0  0  0  0  0  0  0  0  0  0  0  0
    7.3250   -1.4167    0.0000 N   0  0  0  0  0  0  0  0  0  0  0  0
    5.8500   -1.4292    0.0000 C   0  0  0  0  0  0  0  0  0  0  0  0
    1.4042   -0.5792    0.0000 C   0  0  0  0  0  0  0  0  0  0  0  0
    3.3000   -1.3000    0.0000 O   0  0  0  0  0  0  0  0  0  0  0  0
    2.4750   -1.3000    0.0000 O   0  0  0  0  0  0  0  0  0  0  0  0
    7.0125   -2.5917    0.0000 O   0  0  0  0  0  0  0  0  0  0  0  0
    6.1542   -2.5917    0.0000 O   0  0  0  0  0  0  0  0  0  0  0  0
    0.6625    0.7083    0.0000 C   0  0  0  0  0  0  0  0  0  0  0  0
    0.6667   -0.1542    0.0000 C   0  0  0  0  0  0  0  0  0  0  0  0
    2.8625    1.1208    0.0000 Cl  0  0  0  0  0  0  0  0  0  0  0  0
    1.4042    1.9583    0.0000 Cl  0  0  0  0  0  0  0  0  0  0  0  0
    4.3667   -0.5792    0.0000 C   0  0  0  0  0  0  0  0  0  0  0  0
    5.1042   -1.8625    0.0000 C   0  0  0  0  0  0  0  0  0  0  0  0
    5.8417   -0.5750    0.0000 C   0  0  0  0  0  0  0  0  0  0  0  0
    8.0667   -1.8417    0.0000 C   0  0  0  0  0  0  0  0  0  0  0  0
    9.5417   -2.7000    0.0000 C   0  0  0  0  0  0  0  0  0  0  0  0
    4.3667   -1.4375    0.0000 C   0  0  0  0  0  0  0  0  0  0  0  0
    5.1042   -0.1542    0.0000 C   0  0  0  0  0  0  0  0  0  0  0  0
   10.2792   -3.1250    0.0000 F   0  0  0  0  0  0  0  0  0  0  0  0
   -0.0583    1.1208    0.0000 O   0  0  0  0  0  0  0  0  0  0  0  0
    8.8000   -1.4167    0.0000 C   0  0  0  0  0  0  0  0  0  0  0  0
    8.0625   -2.7000    0.0000 C   0  0  0  0  0  0  0  0  0  0  0  0
    8.8042   -3.1292    0.0000 C   0  0  0  0  0  0  0  0  0  0  0  0
    9.5375   -1.8417    0.0000 C   0  0  0  0  0  0  0  0  0  0  0  0
   -0.7708    0.7083    0.0000 C   0  0  0  0  0  0  0  0  0  0  0  0
  2  8  1  0  0  0  0
  3  1  1  0  0  0  0
  4  3  2  0  0  0  0
  5  4  1  0  0  0  0
  6  1  1  0  0  0  0
  7  2  1  0  0  0  0
  8 20  1  0  0  0  0
  9  3  1  0  0  0  0
 10  1  2  0  0  0  0
 11  1  2  0  0  0  0
 12  2  2  0  0  0  0
 13  2  2  0  0  0  0
 14 15  1  0  0  0  0
 15  9  2  0  0  0  0
 16  4  1  0  0  0  0
 17  5  1  0  0  0  0
 18  6  1  0  0  0  0
 19 23  1  0  0  0  0
 20 24  2  0  0  0  0
 21  7  1  0  0  0  0
 22 29  2  0  0  0  0
 23 18  2  0  0  0  0
 24 18  1  0  0  0  0
 25 22  1  0  0  0  0
 26 14  1  0  0  0  0
 27 21  1  0  0  0  0
 28 21  2  0  0  0  0
 29 28  1  0  0  0  0
 30 27  2  0  0  0  0
 31 26  1  0  0  0  0
  8 19  2  0  0  0  0
 14  5  2  0  0  0  0
 22 30  1  0  0  0  0
M  END
>  <ID> (7585003)
7585003

>  <Supplier> (7585003)
ChemBridge

>  <clogP> (7585003)
4.693000000000000e+000

>  <RB> (7585003)
4

>  <tPSA> (7585003)
1.015700000000000e+002

>  <Hacc> (7585003)
5

>  <Hdon> (7585003)
2

>  <LogSw> (7585003)
-7.018000000000000e+000

>  <Group> (7585003)
1

>  <Core> (7585003)
235

$$$$
6147281
  -ISIS-  03310818232D

 27 29  0  0  0  0  0  0  0  0999 V2000
    3.8417    0.2625    0.0000 N   0  0  0  0  0  0  0  0  0  0  0  0
   -0.1000    1.4333    0.0000 C   0  0  0  0  0  0  0  0  0  0  0  0
    3.4875   -0.4292    0.0000 C   0  0  0  0  0  0  0  0  0  0  0  0
    4.6250    0.3000    0.0000 C   0  0  0  0  0  0  0  0  0  0  0  0
    0.3375    2.0833    0.0000 C   0  0  0  0  0  0  0  0  0  0  0  0
    5.0542   -0.3667    0.0000 C   0  0  0  0  0  0  0  0  0  0  0  0
    0.2875    0.8125    0.0000 N   0  0  0  0  0  0  0  0  0  0  0  0
    2.7042   -0.4667    0.0000 N   0  0  0  0  0  0  0  0  0  0  0  0
    3.9125   -1.0792    0.0000 S   0  0  0  0  0  0  0  0  0  0  0  0
    5.8292   -0.4250    0.0000 O   0  0  0  0  0  0  0  0  0  0  0  0
   -0.0125    2.8000    0.0000 C   0  0  0  0  0  0  0  0  0  0  0  0
   -0.9458    1.3958    0.0000 O   0  0  0  0  0  0  0  0  0  0  0  0
    1.0667    0.8500    0.0000 C   0  0  0  0  0  0  0  0  0  0  0  0
    4.9917    0.9875    0.0000 O   0  0  0  0  0  0  0  0  0  0  0  0
    4.7667   -1.1000    0.0000 C   0  0  0  0  0  0  0  0  0  0  0  0
    1.4875    0.1958    0.0000 C   0  0  0  0  0  0  0  0  0  0  0  0
    2.2667    0.2333    0.0000 C   0  0  0  0  0  0  0  0  0  0  0  0
    6.0125   -1.1792    0.0000 C   0  0  0  0  0  0  0  0  0  0  0  0
    5.3667   -1.5875    0.0000 C   0  0  0  0  0  0  0  0  0  0  0  0
   -0.8458    2.8000    0.0000 Cl  0  0  0  0  0  0  0  0  0  0  0  0
    1.1375    2.0333    0.0000 C   0  0  0  0  0  0  0  0  0  0  0  0
    2.2042    1.5958    0.0000 C   0  0  0  0  0  0  0  0  0  0  0  0
    1.4292    1.5500    0.0000 C   0  0  0  0  0  0  0  0  0  0  0  0
    2.6292    0.9333    0.0000 C   0  0  0  0  0  0  0  0  0  0  0  0
    0.4292    3.4625    0.0000 C   0  0  0  0  0  0  0  0  0  0  0  0
    1.6000    2.6958    0.0000 C   0  0  0  0  0  0  0  0  0  0  0  0
    1.2292    3.4208    0.0000 C   0  0  0  0  0  0  0  0  0  0  0  0
  2  7  1  0  0  0  0
  3  1  1  0  0  0  0
  4  1  1  0  0  0  0
  5  2  1  0  0  0  0
  6  4  1  0  0  0  0
  7 13  1  0  0  0  0
  8  3  1  0  0  0  0
  9  3  2  0  0  0  0
 10  6  1  0  0  0  0
 11  5  1  0  0  0  0
 12  2  2  0  0  0  0
 13 16  1  0  0  0  0
 14  4  2  0  0  0  0
 15  6  2  0  0  0  0
 16 17  2  0  0  0  0
 17  8  1  0  0  0  0
 18 10  1  0  0  0  0
 19 15  1  0  0  0  0
 20 11  1  0  0  0  0
 21  5  2  0  0  0  0
 22 24  2  0  0  0  0
 23 22  1  0  0  0  0
 24 17  1  0  0  0  0
 25 11  2  0  0  0  0
 26 21  1  0  0  0  0
 27 26  2  0  0  0  0
 19 18  2  0  0  0  0
 23 13  2  0  0  0  0
 27 25  1  0  0  0  0
M  END
>  <ID> (6147281)
6147281

>  <Supplier> (6147281)
ChemBridge

>  <clogP> (6147281)
2.320000000000000e+000

>  <RB> (6147281)
4

>  <tPSA> (6147281)
8.337000000000002e+001

>  <Hacc> (6147281)
3

>  <Hdon> (6147281)
3

>  <LogSw> (6147281)
-4.096000000000000e+000

>  <Group> (6147281)
2

>  <Core> (6147281)
572

$$$$
6095958
  -ISIS-  03310818232D

 24 26  0  0  0  0  0  0  0  0999 V2000
    5.2917    1.5958    0.0000 C   0  0  0  0  0  0  0  0  0  0  0  0
    4.2000    0.2708    0.0000 N   0  0  3  0  0  0  0  0  0  0  0  0
    4.2667    1.3250    0.0000 C   0  0  0  0  0  0  0  0  0  0  0  0
    5.8625    0.6958    0.0000 C   0  0  0  0  0  0  0  0  0  0  0  0
    5.1875   -0.1250    0.0000 C   0  0  0  0  0  0  0  0  0  0  0  0
    3.4792   -0.1375    0.0000 C   0  0  0  0  0  0  0  0  0  0  0  0
    5.5917    2.3708    0.0000 C   0  0  0  0  0  0  0  0  0  0  0  0
    2.8292    0.2375    0.0000 C   0  0  0  0  0  0  0  0  0  0  0  0
    3.4750   -0.9625    0.0000 O   0  0  0  0  0  0  0  0  0  0  0  0
    5.0750    3.0208    0.0000 O   0  0  0  0  0  0  0  0  0  0  0  0
    2.1792   -0.1375    0.0000 O   0  0  0  0  0  0  0  0  0  0  0  0
    1.5292    0.2375    0.0000 C   0  0  0  0  0  0  0  0  0  0  0  0
    6.4167    2.4958    0.0000 O   0  0  0  0  0  0  0  0  0  0  0  0
    0.2292    0.9875    0.0000 C   0  0  0  0  0  0  0  0  0  0  0  0
    6.9042    0.5125    0.0000 C   0  0  0  0  0  0  0  0  0  0  0  0
    5.5542   -1.1167    0.0000 C   0  0  0  0  0  0  0  0  0  0  0  0
    0.8792   -0.1375    0.0000 C   0  0  0  0  0  0  0  0  0  0  0  0
    1.5292    0.9875    0.0000 C   0  0  0  0  0  0  0  0  0  0  0  0
    0.8792    1.3625    0.0000 C   0  0  0  0  0  0  0  0  0  0  0  0
    0.2292    0.2375    0.0000 C   0  0  0  0  0  0  0  0  0  0  0  0
   -0.4208    1.3625    0.0000 C   0  0  0  0  0  0  0  0  0  0  0  0
    6.7167    3.2708    0.0000 C   0  0  0  0  0  0  0  0  0  0  0  0
    6.6042   -1.3000    0.0000 C   0  0  0  0  0  0  0  0  0  0  0  0
    7.2792   -0.4792    0.0000 C   0  0  0  0  0  0  0  0  0  0  0  0
  2  3  1  0  0  0  0
  3  1  2  0  0  0  0
  4  1  1  0  0  0  0
  5  4  2  0  0  0  0
  6  2  1  0  0  0  0
  7  1  1  0  0  0  0
  8  6  1  0  0  0  0
  9  6  2  0  0  0  0
 10  7  2  0  0  0  0
 11  8  1  0  0  0  0
 12 11  1  0  0  0  0
 13  7  1  0  0  0  0
 14 19  1  0  0  0  0
 15  4  1  0  0  0  0
 16  5  1  0  0  0  0
 17 12  2  0  0  0  0
 18 12  1  0  0  0  0
 19 18  2  0  0  0  0
 20 17  1  0  0  0  0
 21 14  1  0  0  0  0
 22 13  1  0  0  0  0
 23 24  1  0  0  0  0
 24 15  2  0  0  0  0
  5  2  1  0  0  0  0
 16 23  2  0  0  0  0
 14 20  2  0  0  0  0
M  END
>  <ID> (6095958)
6095958

>  <Supplier> (6095958)
ChemBridge

>  <clogP> (6095958)
4.300000000000000e+000

>  <RB> (6095958)
4

>  <tPSA> (6095958)
5.753000000000000e+001

>  <Hacc> (6095958)
5

>  <Hdon> (6095958)
0

>  <LogSw> (6095958)
-5.230000000000000e+000

>  <Group> (6095958)
3

>  <Core> (6095958)
315

$$$$
7317984
  -ISIS-  03310818262D

 25 24  0  0  0  0  0  0  0  0999 V2000
    3.6417    4.3667    0.0000 C   0  0  0  0  0  0  0  0  0  0  0  0
    4.3917    4.4292    0.0000 C   0  0  0  0  0  0  0  0  0  0  0  0
    1.0542    1.5583    0.0000 C   0  0  0  0  0  0  0  0  0  0  0  0
    1.0542    0.8083    0.0000 C   0  0  0  0  0  0  0  0  0  0  0  0
    3.2125    4.9792    0.0000 O   0  0  0  0  0  0  0  0  0  0  0  0
    4.8167    3.8208    0.0000 O   0  0  0  0  0  0  0  0  0  0  0  0
    1.7042    1.9333    0.0000 C   0  0  0  0  0  0  0  0  0  0  0  0
    1.7042    0.4333    0.0000 C   0  0  0  0  0  0  0  0  0  0  0  0
    2.3500    1.5583    0.0000 C   0  0  0  0  0  0  0  0  0  0  0  0
    3.3292    3.6958    0.0000 O   0  0  0  0  0  0  0  0  0  0  0  0
    4.7042    5.1042    0.0000 O   0  0  0  0  0  0  0  0  0  0  0  0
    0.4042    0.4333    0.0000 Cl  0  0  0  0  0  0  0  0  0  0  0  0
    2.3500    0.8083    0.0000 C   0  0  0  0  0  0  0  0  0  0  0  0
    6.2500    1.5583    0.0000 N   0  0  0  0  0  0  0  0  0  0  0  0
    3.0000    1.9333    0.0000 O   0  0  0  0  0  0  0  0  0  0  0  0
    0.4042    1.9333    0.0000 C   0  0  0  0  0  0  0  0  0  0  0  0
    6.9000    1.9333    0.0000 C   0  0  3  0  0  0  0  0  0  0  0  0
    5.6000    1.9333    0.0000 C   0  0  0  0  0  0  0  0  0  0  0  0
    3.6500    1.5583    0.0000 C   0  0  0  0  0  0  0  0  0  0  0  0
    7.5500    1.5583    0.0000 C   0  0  0  0  0  0  0  0  0  0  0  0
    4.9500    1.5583    0.0000 C   0  0  0  0  0  0  0  0  0  0  0  0
    4.3000    1.9333    0.0000 C   0  0  0  0  0  0  0  0  0  0  0  0
    6.9000    2.6833    0.0000 C   0  0  0  0  0  0  0  0  0  0  0  0
    0.4042    2.6833    0.0000 C   0  0  0  0  0  0  0  0  0  0  0  0
    8.1917    1.9333    0.0000 C   0  0  0  0  0  0  0  0  0  0  0  0
  2  1  1  0  0  0  0
  4  3  1  0  0  0  0
  5  1  2  0  0  0  0
  6  2  2  0  0  0  0
  7  3  2  0  0  0  0
  8  4  2  0  0  0  0
  9  7  1  0  0  0  0
 10  1  1  0  0  0  0
 11  2  1  0  0  0  0
 12  4  1  0  0  0  0
 13  9  2  0  0  0  0
 14 18  1  0  0  0  0
 15  9  1  0  0  0  0
 16  3  1  0  0  0  0
 17 14  1  0  0  0  0
 18 21  1  0  0  0  0
 19 15  1  0  0  0  0
 20 17  1  0  0  0  0
 21 22  1  0  0  0  0
 22 19  1  0  0  0  0
 23 17  1  0  0  0  0
 24 16  1  0  0  0  0
 25 20  1  0  0  0  0
 13  8  1  0  0  0  0
M  END
>  <ID> (7317984)
7317984

>  <Supplier> (7317984)
ChemBridge

>  <clogP> (7317984)
2.050000000000000e+000

>  <RB> (7317984)
1

>  <tPSA> (7317984)
9.586000000000000e+001

>  <Hacc> (7317984)
6

>  <Hdon> (7317984)
3

>  <LogSw> (7317984)
-2.013000000000000e+000

>  <Group> (7317984)
1

>  <Core> (7317984)
105

$$$$
9049360
  -ISIS-  03310818282D

 20 21  0  0  0  0  0  0  0  0999 V2000
    5.4042    1.5000    0.0000 C   0  0  0  0  0  0  0  0  0  0  0  0
    6.0542    1.8750    0.0000 N   0  0  3  0  0  0  0  0  0  0  0  0
    4.7542    1.8750    0.0000 N   0  0  0  0  0  0  0  0  0  0  0  0
    5.4042    0.7500    0.0000 O   0  0  0  0  0  0  0  0  0  0  0  0
    4.1042    1.5000    0.0000 C   0  0  0  0  0  0  0  0  0  0  0  0
    2.8042    0.7500    0.0000 C   0  0  0  0  0  0  0  0  0  0  0  0
    4.1042    0.7500    0.0000 C   0  0  0  0  0  0  0  0  0  0  0  0
    3.4542    1.8750    0.0000 C   0  0  0  0  0  0  0  0  0  0  0  0
    3.4542    0.3750    0.0000 C   0  0  0  0  0  0  0  0  0  0  0  0
    2.8042    1.5000    0.0000 C   0  0  0  0  0  0  0  0  0  0  0  0
    6.6750    1.4583    0.0000 C   0  0  0  0  0  0  0  0  0  0  0  0
    6.0000    2.6250    0.0000 C   0  0  0  0  0  0  0  0  0  0  0  0
    2.1542    0.3750    0.0000 C   0  0  0  0  0  0  0  0  0  0  0  0
    1.5042    0.7500    0.0000 C   0  0  0  0  0  0  0  0  0  0  0  0
    0.8542    0.3750    0.0000 C   0  0  0  0  0  0  0  0  0  0  0  0
    6.5500    3.1333    0.0000 C   0  0  0  0  0  0  0  0  0  0  0  0
    7.3917    1.6750    0.0000 C   0  0  0  0  0  0  0  0  0  0  0  0
    0.2042    0.7500    0.0000 C   0  0  0  0  0  0  0  0  0  0  0  0
    7.2875    3.0208    0.0000 C   0  0  0  0  0  0  0  0  0  0  0  0
    7.6625    2.3708    0.0000 C   0  0  0  0  0  0  0  0  0  0  0  0
  2  1  1  0  0  0  0
  3  1  1  0  0  0  0
  4  1  2  0  0  0  0
  5  3  1  0  0  0  0
  6 10  1  0  0  0  0
  7  5  2  0  0  0  0
  8  5  1  0  0  0  0
  9  7  1  0  0  0  0
 10  8  2  0  0  0  0
 11  2  1  0  0  0  0
 12  2  1  0  0  0  0
 13  6  1  0  0  0  0
 14 13  1  0  0  0  0
 15 14  1  0  0  0  0
 16 12  1  0  0  0  0
 17 11  1  0  0  0  0
 18 15  1  0  0  0  0
 19 16  1  0  0  0  0
 20 17  1  0  0  0  0
  9  6  2  0  0  0  0
 19 20  1  0  0  0  0
M  END
>  <ID> (9049360)
9049360

>  <Supplier> (9049360)
ChemBridge

>  <clogP> (9049360)
4.495000000000000e+000

>  <RB> (9049360)
2

>  <tPSA> (9049360)
3.234000000000000e+001

>  <Hacc> (9049360)
1

>  <Hdon> (9049360)
1

>  <LogSw> (9049360)
-5.690000000000000e+000

>  <Group> (9049360)
3

$$$$
7317987
  -ISIS-  03310818262D

 33 35  0  0  0  0  0  0  0  0999 V2000
   10.2167   -4.0917    0.0000 C   0  0  0  0  0  0  0  0  0  0  0  0
   10.2250   -3.2750    0.0000 C   0  0  3  0  0  0  0  0  0  0  0  0
   10.9167   -4.4917    0.0000 C   0  0  0  0  0  0  0  0  0  0  0  0
    5.9417   -5.7500    0.0000 C   0  0  0  0  0  0  0  0  0  0  0  0
    6.6542   -5.3375    0.0000 C   0  0  0  0  0  0  0  0  0  0  0  0
    7.3667   -5.7542    0.0000 N   0  0  0  0  0  0  0  0  0  0  0  0
    9.5125   -2.8667    0.0000 O   0  0  0  0  0  0  0  0  0  0  0  0
   10.9167   -5.3167    0.0000 C   0  0  0  0  0  0  0  0  0  0  0  0
    8.0875   -5.3417    0.0000 C   0  0  0  0  0  0  0  0  0  0  0  0
    8.8042   -3.2792    0.0000 C   0  0  0  0  0  0  0  0  0  0  0  0
   11.6250   -5.7167    0.0000 C   0  0  0  0  0  0  0  0  0  0  0  0
    5.2250   -5.3292    0.0000 C   0  0  0  0  0  0  0  0  0  0  0  0
    9.5042   -4.4917    0.0000 O   0  0  0  0  0  0  0  0  0  0  0  0
   12.3292   -5.3167    0.0000 C   0  0  0  0  0  0  0  0  0  0  0  0
   11.6292   -4.0792    0.0000 C   0  0  0  0  0  0  0  0  0  0  0  0
   10.9292   -2.8667    0.0000 C   0  0  0  0  0  0  0  0  0  0  0  0
    8.8042   -5.7542    0.0000 O   0  0  0  0  0  0  0  0  0  0  0  0
    8.0875   -2.8667    0.0000 O   0  0  0  0  0  0  0  0  0  0  0  0
   12.3292   -4.5042    0.0000 C   0  0  0  0  0  0  0  0  0  0  0  0
    5.9417   -6.5750    0.0000 Cl  0  0  0  0  0  0  0  0  0  0  0  0
    8.0875   -4.5167    0.0000 C   0  0  0  0  0  0  0  0  0  0  0  0
    8.8000   -4.1042    0.0000 C   0  0  0  0  0  0  0  0  0  0  0  0
    4.5125   -5.7417    0.0000 Cl  0  0  0  0  0  0  0  0  0  0  0  0
    6.6625   -4.5042    0.0000 C   0  0  0  0  0  0  0  0  0  0  0  0
    5.9417   -4.0917    0.0000 C   0  0  0  0  0  0  0  0  0  0  0  0
   11.6125   -6.5417    0.0000 C   0  0  0  0  0  0  0  0  0  0  0  0
    5.2292   -4.5042    0.0000 C   0  0  0  0  0  0  0  0  0  0  0  0
   13.0292   -5.7375    0.0000 C   0  0  0  0  0  0  0  0  0  0  0  0
   10.9167   -2.0542    0.0000 C   0  0  0  0  0  0  0  0  0  0  0  0
   11.6167   -3.2750    0.0000 C   0  0  0  0  0  0  0  0  0  0  0  0
   12.3292   -2.8750    0.0000 C   0  0  0  0  0  0  0  0  0  0  0  0
   11.6167   -1.6500    0.0000 C   0  0  0  0  0  0  0  0  0  0  0  0
   12.3375   -2.0542    0.0000 C   0  0  0  0  0  0  0  0  0  0  0  0
  2  1  1  0  0  0  0
  3  1  1  0  0  0  0
  4  5  1  0  0  0  0
  5  6  1  0  0  0  0
  6  9  1  0  0  0  0
  7  2  1  0  0  0  0
  8  3  2  0  0  0  0
  9 21  1  0  0  0  0
 10  7  1  0  0  0  0
 11  8  1  0  0  0  0
 12  4  2  0  0  0  0
 13  1  2  0  0  0  0
 14 19  1  0  0  0  0
 15  3  1  0  0  0  0
 16  2  1  0  0  0  0
 17  9  2  0  0  0  0
 18 10  2  0  0  0  0
 19 15  2  0  0  0  0
 20  4  1  0  0  0  0
 21 22  1  0  0  0  0
 22 10  1  0  0  0  0
 23 12  1  0  0  0  0
 24  5  2  0  0  0  0
 25 24  1  0  0  0  0
 26 11  1  0  0  0  0
 27 25  2  0  0  0  0
 28 14  1  0  0  0  0
 29 16  1  0  0  0  0
 30 16  2  0  0  0  0
 31 30  1  0  0  0  0
 32 29  2  0  0  0  0
 33 31  2  0  0  0  0
 11 14  2  0  0  0  0
 33 32  1  0  0  0  0
 12 27  1  0  0  0  0
M  END
>  <ID> (7317987)
7317987

>  <Supplier> (7317987)
ChemBridge

>  <clogP> (7317987)
5.913000000000000e+000

>  <RB> (7317987)
9

>  <tPSA> (7317987)
7.247000000000000e+001

>  <Hacc> (7317987)
4

>  <Hdon> (7317987)
1

>  <LogSw> (7317987)
-7.780000000000000e+000

>  <Group> (7317987)
1

>  <Core> (7317987)
217

$$$$
6607668
  -ISIS-  03310818242D

 21 24  0  0  0  0  0  0  0  0999 V2000
    8.6000    2.2083    0.0000 C   0  0  0  0  0  0  0  0  0  0  0  0
    8.6000    3.6083    0.0000 C   0  0  0  0  0  0  0  0  0  0  0  0
    6.1000    3.6083    0.0000 C   0  0  0  0  0  0  0  0  0  0  0  0
    6.1000    2.2083    0.0000 C   0  0  0  0  0  0  0  0  0  0  0  0
    7.3000    1.4000    0.0000 S   0  0  0  0  0  0  0  0  0  0  0  0
    9.8000    1.4000    0.0000 C   0  0  0  0  0  0  0  0  0  0  0  0
    9.8000    4.2917    0.0000 N   0  0  0  0  0  0  0  0  0  0  0  0
    4.9000    1.4000    0.0000 N   0  0  0  0  0  0  0  0  0  0  0  0
   11.0000    2.2083    0.0000 O   0  0  0  0  0  0  0  0  0  0  0  0
   11.0000    3.6083    0.0000 C   0  0  0  0  0  0  0  0  0  0  0  0
    3.7000    2.2083    0.0000 C   0  0  0  0  0  0  0  0  0  0  0  0
    4.9000    4.2917    0.0000 C   0  0  0  0  0  0  0  0  0  0  0  0
    3.7000    3.6083    0.0000 C   0  0  0  0  0  0  0  0  0  0  0  0
    2.5000    1.4000    0.0000 C   0  0  0  0  0  0  0  0  0  0  0  0
    1.3000    3.6083    0.0000 O   0  0  0  0  0  0  0  0  0  0  0  0
    1.3000    2.2083    0.0000 C   0  0  3  0  0  0  0  0  0  0  0  0
    9.8000    0.0000    0.0000 O   0  0  0  0  0  0  0  0  0  0  0  0
    2.5000    4.2917    0.0000 C   0  0  0  0  0  0  0  0  0  0  0  0
   12.2000    4.2917    0.0000 C   0  0  0  0  0  0  0  0  0  0  0  0
    0.0000    2.9000    0.0000 C   0  0  0  0  0  0  0  0  0  0  0  0
    1.3000    0.7000    0.0000 C   0  0  0  0  0  0  0  0  0  0  0  0
  2  1  2  0  0  0  0
  3  2  1  0  0  0  0
  4  5  1  0  0  0  0
  5  1  1  0  0  0  0
  6  1  1  0  0  0  0
  7  2  1  0  0  0  0
  8  4  2  0  0  0  0
  9  6  1  0  0  0  0
 10  9  1  0  0  0  0
 11  8  1  0  0  0  0
 12  3  2  0  0  0  0
 13 12  1  0  0  0  0
 14 11  1  0  0  0  0
 15 18  1  0  0  0  0
 16 14  1  0  0  0  0
 17  6  2  0  0  0  0
 18 13  1  0  0  0  0
 19 10  1  0  0  0  0
 20 16  1  0  0  0  0
 21 16  1  0  0  0  0
  3  4  1  0  0  0  0
  7 10  2  0  0  0  0
 13 11  2  0  0  0  0
 16 15  1  0  0  0  0
M  END
>  <ID> (6607668)
6607668

>  <Supplier> (6607668)
ChemBridge

>  <clogP> (6607668)
1.030000000000000e+000

>  <RB> (6607668)
0

>  <tPSA> (6607668)
6.522000000000000e+001

>  <Hacc> (6607668)
5

>  <Hdon> (6607668)
0

>  <LogSw> (6607668)
-2.285000000000000e+000

>  <Group> (6607668)
3

$$$$
5606772
  -ISIS-  03310818222D

 29 32  0  0  0  0  0  0  0  0999 V2000
    2.6042   -3.6292    0.0000 C   0  0  0  0  0  0  0  0  0  0  0  0
    1.9542   -3.2542    0.0000 C   0  0  3  0  0  0  0  0  0  0  0  0
    1.3167   -3.6292    0.0000 C   0  0  0  0  0  0  0  0  0  0  0  0
    2.6042   -4.3792    0.0000 C   0  0  0  0  0  0  0  0  0  0  0  0
    1.3167   -4.3792    0.0000 C   0  0  0  0  0  0  0  0  0  0  0  0
    1.9542   -1.7167    0.0000 C   0  0  0  0  0  0  0  0  0  0  0  0
    1.9542   -4.7542    0.0000 N   0  0  0  0  0  0  0  0  0  0  0  0
    1.3042   -1.3500    0.0000 C   0  0  0  0  0  0  0  0  0  0  0  0
    3.2667   -3.2500    0.0000 C   0  0  0  0  0  0  0  0  0  0  0  0
    2.6042   -1.3500    0.0000 C   0  0  0  0  0  0  0  0  0  0  0  0
    1.3042   -0.6000    0.0000 C   0  0  0  0  0  0  0  0  0  0  0  0
    2.6042   -0.6000    0.0000 C   0  0  0  0  0  0  0  0  0  0  0  0
    1.9542   -0.2167    0.0000 C   0  0  0  0  0  0  0  0  0  0  0  0
    0.6667   -3.2542    0.0000 C   0  0  0  0  0  0  0  0  0  0  0  0
    3.1667   -0.0875    0.0000 O   0  0  0  0  0  0  0  0  0  0  0  0
    2.1042    0.5000    0.0000 O   0  0  0  0  0  0  0  0  0  0  0  0
    2.8542    0.5833    0.0000 C   0  0  0  0  0  0  0  0  0  0  0  0
    3.2667   -2.5000    0.0000 O   0  0  0  0  0  0  0  0  0  0  0  0
    0.6667   -2.5042    0.0000 O   0  0  0  0  0  0  0  0  0  0  0  0
    0.6542   -1.7167    0.0000 Br  0  0  0  0  0  0  0  0  0  0  0  0
    0.6667   -4.7542    0.0000 C   0  0  0  0  0  0  0  0  0  0  0  0
    3.9167   -3.6167    0.0000 O   0  0  0  0  0  0  0  0  0  0  0  0
    3.2667   -4.7542    0.0000 C   0  0  0  0  0  0  0  0  0  0  0  0
    0.0167   -3.6292    0.0000 C   0  0  0  0  0  0  0  0  0  0  0  0
    0.0167   -4.3792    0.0000 C   0  0  0  0  0  0  0  0  0  0  0  0
    5.8667   -3.2375    0.0000 O   0  0  0  0  0  0  0  0  0  0  0  0
    4.5667   -3.2500    0.0000 C   0  0  0  0  0  0  0  0  0  0  0  0
    5.2167   -3.6167    0.0000 C   0  0  0  0  0  0  0  0  0  0  0  0
    6.5167   -3.6167    0.0000 C   0  0  0  0  0  0  0  0  0  0  0  0
  2  1  1  0  0  0  0
  3  2  1  0  0  0  0
  4  1  2  0  0  0  0
  5  7  1  0  0  0  0
  6  2  1  0  0  0  0
  7  4  1  0  0  0  0
  8  6  1  0  0  0  0
  9  1  1  0  0  0  0
 10  6  2  0  0  0  0
 11  8  2  0  0  0  0
 12 10  1  0  0  0  0
 13 12  2  0  0  0  0
 14  3  1  0  0  0  0
 15 12  1  0  0  0  0
 16 13  1  0  0  0  0
 17 15  1  0  0  0  0
 18  9  2  0  0  0  0
 19 14  2  0  0  0  0
 20  8  1  0  0  0  0
 21  5  1  0  0  0  0
 22  9  1  0  0  0  0
 23  4  1  0  0  0  0
 24 14  1  0  0  0  0
 25 21  1  0  0  0  0
 26 28  1  0  0  0  0
 27 22  1  0  0  0  0
 28 27  1  0  0  0  0
 29 26  1  0  0  0  0
  3  5  2  0  0  0  0
 25 24  1  0  0  0  0
 13 11  1  0  0  0  0
 16 17  1  0  0  0  0
M  END
>  <ID> (5606772)
5606772

>  <Supplier> (5606772)
ChemBridge

>  <clogP> (5606772)
2.840000000000000e+000

>  <RB> (5606772)
5

>  <tPSA> (5606772)
8.309000000000000e+001

>  <Hacc> (5606772)
6

>  <Hdon> (5606772)
1

>  <LogSw> (5606772)
-4.002000000000000e+000

>  <Group> (5606772)
1

>  <Core> (5606772)
085

$$$$
7885274
  -ISIS-  03310818272D

 16 18  0  0  0  0  0  0  0  0999 V2000
    2.3542    1.5083    0.0000 C   0  0  0  0  0  0  0  0  0  0  0  0
    2.3542    0.7583    0.0000 C   0  0  0  0  0  0  0  0  0  0  0  0
    1.0542    1.5083    0.0000 N   0  0  3  0  0  0  0  0  0  0  0  0
    1.7042    1.8833    0.0000 C   0  0  0  0  0  0  0  0  0  0  0  0
    1.7042    0.3833    0.0000 N   0  0  0  0  0  0  0  0  0  0  0  0
    1.0542    0.7583    0.0000 C   0  0  0  0  0  0  0  0  0  0  0  0
    3.0667    0.5250    0.0000 S   0  0  0  0  0  0  0  0  0  0  0  0
    3.0667    1.7375    0.0000 C   0  0  0  0  0  0  0  0  0  0  0  0
    3.5125    1.1333    0.0000 C   0  0  0  0  0  0  0  0  0  0  0  0
    1.7042    2.6333    0.0000 N   0  0  0  0  0  0  0  0  0  0  0  0
    0.4042    0.3833    0.0000 O   0  0  0  0  0  0  0  0  0  0  0  0
    0.4042    1.8833    0.0000 N   0  0  0  0  0  0  0  0  0  0  0  0
    3.3750    2.4208    0.0000 C   0  0  0  0  0  0  0  0  0  0  0  0
    4.2542    1.2083    0.0000 C   0  0  0  0  0  0  0  0  0  0  0  0
    4.1167    2.5000    0.0000 C   0  0  0  0  0  0  0  0  0  0  0  0
    4.5625    1.8958    0.0000 C   0  0  0  0  0  0  0  0  0  0  0  0
  2  1  2  0  0  0  0
  3  4  1  0  0  0  0
  4  1  1  0  0  0  0
  5  2  1  0  0  0  0
  6  3  1  0  0  0  0
  7  2  1  0  0  0  0
  8  1  1  0  0  0  0
  9  8  2  0  0  0  0
 10  4  2  0  0  0  0
 11  6  2  0  0  0  0
 12  3  1  0  0  0  0
 13  8  1  0  0  0  0
 14  9  1  0  0  0  0
 15 13  1  0  0  0  0
 16 15  1  0  0  0  0
  7  9  1  0  0  0  0
  6  5  1  0  0  0  0
 16 14  1  0  0  0  0
M  END
>  <ID> (7885274)
7885274

>  <Supplier> (7885274)
ChemBridge

>  <clogP> (7885274)
4.600000000000000e-001

>  <RB> (7885274)
0

>  <tPSA> (7885274)
8.766000000000000e+001

>  <Hacc> (7885274)
2

>  <Hdon> (7885274)
3

>  <LogSw> (7885274)
-1.317000000000000e+000

>  <Group> (7885274)
2

$$$$
5606778
  -ISIS-  03310818222D

 26 28  0  0  0  0  0  0  0  0999 V2000
   -5.6958    2.0333    0.0000 C   0  0  0  0  0  0  0  0  0  0  0  0
   -6.5292    3.4458    0.0000 C   0  0  3  0  0  0  0  0  0  0  0  0
   -6.5292    0.6625    0.0000 C   0  0  0  0  0  0  0  0  0  0  0  0
   -6.5292    9.0667    0.0000 N   0  3  0  0  0  0  0  0  0  0  0  0
   -8.9042    2.0333    0.0000 C   0  0  0  0  0  0  0  0  0  0  0  0
   -8.1167    0.6625    0.0000 N   0  0  0  0  0  0  0  0  0  0  0  0
   -8.1542    3.4458    0.0000 N   0  0  0  0  0  0  0  0  0  0  0  0
   -4.0625    2.0333    0.0000 C   0  0  0  0  0  0  0  0  0  0  0  0
   -5.7458    4.8375    0.0000 C   0  0  0  0  0  0  0  0  0  0  0  0
   -5.7458    7.6542    0.0000 C   0  0  0  0  0  0  0  0  0  0  0  0
   -6.5792    6.2500    0.0000 C   0  0  0  0  0  0  0  0  0  0  0  0
   -5.6958   10.4375    0.0000 O   0  5  0  0  0  0  0  0  0  0  0  0
   -8.1292    9.0667    0.0000 O   0  0  0  0  0  0  0  0  0  0  0  0
   -3.2458    0.6208    0.0000 O   0  0  0  0  0  0  0  0  0  0  0  0
  -10.5375    2.0333    0.0000 O   0  0  0  0  0  0  0  0  0  0  0  0
   -3.2458    3.4583    0.0000 O   0  0  0  0  0  0  0  0  0  0  0  0
   -1.4500   -2.3042    0.0000 O   0  0  0  0  0  0  0  0  0  0  0  0
   -5.6958   -0.7375    0.0000 C   0  0  0  0  0  0  0  0  0  0  0  0
   -1.6208    0.6208    0.0000 C   0  0  0  0  0  0  0  0  0  0  0  0
   -0.8125   -0.7792    0.0000 C   0  0  3  0  0  0  0  0  0  0  0  0
   -4.1125    4.8375    0.0000 C   0  0  0  0  0  0  0  0  0  0  0  0
   -4.1125    7.6542    0.0000 C   0  0  0  0  0  0  0  0  0  0  0  0
   -3.3208    6.2042    0.0000 C   0  0  0  0  0  0  0  0  0  0  0  0
   -0.2208   -3.3875    0.0000 C   0  0  0  0  0  0  0  0  0  0  0  0
    0.8000   -0.9042    0.0000 C   0  0  0  0  0  0  0  0  0  0  0  0
    1.1875   -2.5375    0.0000 C   0  0  0  0  0  0  0  0  0  0  0  0
  2  1  1  0  0  0  0
  3  1  2  0  0  0  0
  4 10  1  0  0  0  0
  5  6  1  0  0  0  0
  6  3  1  0  0  0  0
  7  2  1  0  0  0  0
  8  1  1  0  0  0  0
  9  2  1  0  0  0  0
 10 11  2  0  0  0  0
 11  9  1  0  0  0  0
 12  4  1  0  0  0  0
 13  4  2  0  0  0  0
 14  8  1  0  0  0  0
 15  5  2  0  0  0  0
 16  8  2  0  0  0  0
 17 20  1  0  0  0  0
 18  3  1  0  0  0  0
 19 14  1  0  0  0  0
 20 19  1  0  0  0  0
 21  9  2  0  0  0  0
 22 23  2  0  0  0  0
 23 21  1  0  0  0  0
 24 17  1  0  0  0  0
 25 20  1  0  0  0  0
 26 25  1  0  0  0  0
  7  5  1  0  0  0  0
 22 10  1  0  0  0  0
 24 26  1  0  0  0  0
M  CHG  2   4   1  12  -1
M  END
>  <ID> (5606778)
5606778

>  <Supplier> (5606778)
ChemBridge

>  <clogP> (5606778)
3.570000000000000e+000

>  <RB> (5606778)
5

>  <tPSA> (5606778)
1.198000000000000e+002

>  <Hacc> (5606778)
6

>  <Hdon> (5606778)
2

>  <LogSw> (5606778)
-5.273000000000002e+000

>  <Group> (5606778)
1

>  <Core> (5606778)
072

$$$$
5606779
  -ISIS-  03310818222D

 23 25  0  0  0  0  0  0  0  0999 V2000
   -5.6958    2.0333    0.0000 C   0  0  0  0  0  0  0  0  0  0  0  0
   -6.5292    3.4458    0.0000 C   0  0  3  0  0  0  0  0  0  0  0  0
   -6.5292    0.6625    0.0000 C   0  0  0  0  0  0  0  0  0  0  0  0
   -4.0625    2.0333    0.0000 C   0  0  0  0  0  0  0  0  0  0  0  0
   -8.9042    2.0333    0.0000 C   0  0  0  0  0  0  0  0  0  0  0  0
   -8.1167    0.6625    0.0000 N   0  0  0  0  0  0  0  0  0  0  0  0
   -8.1542    3.4458    0.0000 N   0  0  0  0  0  0  0  0  0  0  0  0
   -5.7458    4.8375    0.0000 C   0  0  0  0  0  0  0  0  0  0  0  0
   -3.2458    0.6208    0.0000 O   0  0  0  0  0  0  0  0  0  0  0  0
   -3.2458    3.4583    0.0000 O   0  0  0  0  0  0  0  0  0  0  0  0
  -10.5375    2.0333    0.0000 O   0  0  0  0  0  0  0  0  0  0  0  0
   -6.5792    6.2500    0.0000 C   0  0  0  0  0  0  0  0  0  0  0  0
   -5.7458    7.6542    0.0000 C   0  0  0  0  0  0  0  0  0  0  0  0
   -5.6958   -0.7375    0.0000 C   0  0  0  0  0  0  0  0  0  0  0  0
   -6.5292    9.0667    0.0000 Cl  0  0  0  0  0  0  0  0  0  0  0  0
   -1.6125    0.6208    0.0000 C   0  0  3  0  0  0  0  0  0  0  0  0
   -4.1125    4.8375    0.0000 C   0  0  0  0  0  0  0  0  0  0  0  0
   -3.3208    6.2042    0.0000 C   0  0  0  0  0  0  0  0  0  0  0  0
   -4.1125    7.6542    0.0000 C   0  0  0  0  0  0  0  0  0  0  0  0
   -0.6958    1.9458    0.0000 C   0  0  0  0  0  0  0  0  0  0  0  0
   -0.6208   -0.7000    0.0000 C   0  0  0  0  0  0  0  0  0  0  0  0
    0.9292   -0.1500    0.0000 C   0  0  0  0  0  0  0  0  0  0  0  0
    0.8875    1.4458    0.0000 C   0  0  0  0  0  0  0  0  0  0  0  0
  2  1  1  0  0  0  0
  3  1  2  0  0  0  0
  4  1  1  0  0  0  0
  5  6  1  0  0  0  0
  6  3  1  0  0  0  0
  7  2  1  0  0  0  0
  8  2  1  0  0  0  0
  9  4  1  0  0  0  0
 10  4  2  0  0  0  0
 11  5  2  0  0  0  0
 12  8  1  0  0  0  0
 13 12  2  0  0  0  0
 14  3  1  0  0  0  0
 15 13  1  0  0  0  0
 16  9  1  0  0  0  0
 17  8  2  0  0  0  0
 18 17  1  0  0  0  0
 19 18  2  0  0  0  0
 20 16  1  0  0  0  0
 21 16  1  0  0  0  0
 22 21  1  0  0  0  0
 23 20  1  0  0  0  0
  7  5  1  0  0  0  0
 23 22  1  0  0  0  0
 19 13  1  0  0  0  0
M  END
>  <ID> (5606779)
5606779

>  <Supplier> (5606779)
ChemBridge

>  <clogP> (5606779)
5.590000000000000e+000

>  <RB> (5606779)
4

>  <tPSA> (5606779)
6.743000000000001e+001

>  <Hacc> (5606779)
3

>  <Hdon> (5606779)
2

>  <LogSw> (5606779)
-6.415000000000000e+000

>  <Group> (5606779)
1

>  <Core> (5606779)
072

$$$$
9049363
  -ISIS-  03310818282D

 18 19  0  0  0  0  0  0  0  0999 V2000
    1.5875    1.7000    0.0000 C   0  0  0  0  0  0  0  0  0  0  0  0
    0.8667    1.4708    0.0000 C   0  0  0  0  0  0  0  0  0  0  0  0
   -0.3958    1.7458    0.0000 C   0  0  0  0  0  0  0  0  0  0  0  0
   -1.0083    2.1833    0.0000 S   0  0  0  0  0  0  0  0  0  0  0  0
    0.3167    1.9708    0.0000 N   0  0  0  0  0  0  0  0  0  0  0  0
    2.8000    1.7000    0.0000 N   0  0  0  0  0  0  0  0  0  0  0  0
    2.1917    1.2625    0.0000 N   0  0  3  0  0  0  0  0  0  0  0  0
   -0.6333    1.0250    0.0000 N   0  0  0  0  0  0  0  0  0  0  0  0
   -1.6125    1.7458    0.0000 C   0  0  0  0  0  0  0  0  0  0  0  0
   -1.3833    1.0250    0.0000 N   0  0  0  0  0  0  0  0  0  0  0  0
    1.8167    2.4208    0.0000 C   0  0  0  0  0  0  0  0  0  0  0  0
    2.5667    2.4208    0.0000 C   0  0  0  0  0  0  0  0  0  0  0  0
    0.7167    0.7375    0.0000 O   0  0  0  0  0  0  0  0  0  0  0  0
   -2.3250    1.9708    0.0000 S   0  0  0  0  0  0  0  0  0  0  0  0
    1.3750    3.0208    0.0000 Cl  0  0  0  0  0  0  0  0  0  0  0  0
    2.1917    0.5125    0.0000 C   0  0  0  0  0  0  0  0  0  0  0  0
   -2.8833    1.4708    0.0000 C   0  0  0  0  0  0  0  0  0  0  0  0
   -3.5958    1.7000    0.0000 C   0  0  0  0  0  0  0  0  0  0  0  0
  2  1  1  0  0  0  0
  3  5  1  0  0  0  0
  4  3  1  0  0  0  0
  5  2  1  0  0  0  0
  6  7  1  0  0  0  0
  7  1  1  0  0  0  0
  8  3  2  0  0  0  0
  9  4  1  0  0  0  0
 10  8  1  0  0  0  0
 11  1  2  0  0  0  0
 12 11  1  0  0  0  0
 13  2  2  0  0  0  0
 14  9  1  0  0  0  0
 15 11  1  0  0  0  0
 16  7  1  0  0  0  0
 17 14  1  0  0  0  0
 18 17  1  0  0  0  0
  6 12  2  0  0  0  0
 10  9  2  0  0  0  0
M  END
>  <ID> (9049363)
9049363

>  <Supplier> (9049363)
ChemBridge

>  <clogP> (9049363)
6.550000000000000e-001

>  <RB> (9049363)
3

>  <tPSA> (9049363)
7.270000000000000e+001

>  <Hacc> (9049363)
4

>  <Hdon> (9049363)
1

>  <LogSw> (9049363)
-3.377000000000000e+000

>  <Group> (9049363)
2

>  <Core> (9049363)
034

$$$$
7799774
  -ISIS-  03310818272D

 24 27  0  0  0  0  0  0  0  0999 V2000
    4.9500    0.0000    0.0000 N   0  0  3  0  0  0  0  0  0  0  0  0
    4.5042   -0.6042    0.0000 C   0  0  0  0  0  0  0  0  0  0  0  0
    4.5042    0.6083    0.0000 C   0  0  0  0  0  0  0  0  0  0  0  0
    3.7917   -0.3667    0.0000 C   0  0  0  0  0  0  0  0  0  0  0  0
    3.7917    0.3833    0.0000 C   0  0  0  0  0  0  0  0  0  0  0  0
    1.1917   -0.3667    0.0000 C   0  0  0  0  0  0  0  0  0  0  0  0
    1.8417   -0.7417    0.0000 N   0  0  0  0  0  0  0  0  0  0  0  0
    0.5417   -0.7417    0.0000 C   0  0  0  0  0  0  0  0  0  0  0  0
   -0.7583   -0.7417    0.0000 C   0  0  0  0  0  0  0  0  0  0  0  0
    3.1417    0.7583    0.0000 C   0  0  0  0  0  0  0  0  0  0  0  0
   -0.1083   -0.3667    0.0000 C   0  0  0  0  0  0  0  0  0  0  0  0
    3.1417   -0.7417    0.0000 C   0  0  0  0  0  0  0  0  0  0  0  0
    4.7375   -1.3167    0.0000 O   0  0  0  0  0  0  0  0  0  0  0  0
    4.7417    1.3208    0.0000 O   0  0  0  0  0  0  0  0  0  0  0  0
   -0.7583   -1.5000    0.0000 C   0  0  0  0  0  0  0  0  0  0  0  0
   -1.4750   -0.5125    0.0000 O   0  0  0  0  0  0  0  0  0  0  0  0
   -1.4750   -1.7292    0.0000 O   0  0  0  0  0  0  0  0  0  0  0  0
    2.4917   -0.3667    0.0000 C   0  0  0  0  0  0  0  0  0  0  0  0
   -1.9208   -1.1167    0.0000 C   0  0  0  0  0  0  0  0  0  0  0  0
    1.1917    0.3833    0.0000 O   0  0  0  0  0  0  0  0  0  0  0  0
    0.5417   -1.5000    0.0000 C   0  0  0  0  0  0  0  0  0  0  0  0
   -0.1083   -1.8750    0.0000 C   0  0  0  0  0  0  0  0  0  0  0  0
    5.7000    0.0000    0.0000 C   0  0  0  0  0  0  0  0  0  0  0  0
    2.4917    0.3833    0.0000 C   0  0  0  0  0  0  0  0  0  0  0  0
  2  1  1  0  0  0  0
  3  1  1  0  0  0  0
  4  2  1  0  0  0  0
  5  3  1  0  0  0  0
  6  7  1  0  0  0  0
  7 18  1  0  0  0  0
  8  6  1  0  0  0  0
  9 11  2  0  0  0  0
 10  5  2  0  0  0  0
 11  8  1  0  0  0  0
 12  4  2  0  0  0  0
 13  2  2  0  0  0  0
 14  3  2  0  0  0  0
 15 22  2  0  0  0  0
 16  9  1  0  0  0  0
 17 15  1  0  0  0  0
 18 12  1  0  0  0  0
 19 16  1  0  0  0  0
 20  6  2  0  0  0  0
 21  8  2  0  0  0  0
 22 21  1  0  0  0  0
 23  1  1  0  0  0  0
 24 10  1  0  0  0  0
  4  5  1  0  0  0  0
 24 18  2  0  0  0  0
 15  9  1  0  0  0  0
 17 19  1  0  0  0  0
M  END
>  <ID> (7799774)
7799774

>  <Supplier> (7799774)
ChemBridge

>  <clogP> (7799774)
2.170000000000000e+000

>  <RB> (7799774)
2

>  <tPSA> (7799774)
8.494000000000000e+001

>  <Hacc> (7799774)
5

>  <Hdon> (7799774)
1

>  <LogSw> (7799774)
-3.418000000000000e+000

>  <Group> (7799774)
2

>  <Core> (7799774)
128

$$$$
7030881
  -ISIS-  03310818252D

 30 32  0  0  0  0  0  0  0  0999 V2000
    6.0917   -2.0792    0.0000 S   0  0  3  0  0  0  0  0  0  0  0  0
    6.0917   -2.9042    0.0000 N   0  0  3  0  0  0  0  0  0  0  0  0
    6.8167   -3.3167    0.0000 C   0  0  0  0  0  0  0  0  0  0  0  0
    7.5292   -2.9042    0.0000 C   0  0  0  0  0  0  0  0  0  0  0  0
    5.3792   -1.6625    0.0000 C   0  0  0  0  0  0  0  0  0  0  0  0
    8.2500   -3.3167    0.0000 N   0  0  0  0  0  0  0  0  0  0  0  0
    8.2417   -4.1500    0.0000 C   0  0  0  0  0  0  0  0  0  0  0  0
    6.8125   -1.6542    0.0000 O   0  0  0  0  0  0  0  0  0  0  0  0
    5.3917   -2.5125    0.0000 O   0  0  0  0  0  0  0  0  0  0  0  0
    8.9667   -4.5667    0.0000 C   0  0  0  0  0  0  0  0  0  0  0  0
    5.3792   -3.3250    0.0000 C   0  0  0  0  0  0  0  0  0  0  0  0
    7.5292   -2.0750    0.0000 O   0  0  0  0  0  0  0  0  0  0  0  0
    8.9667   -5.3917    0.0000 C   0  0  0  0  0  0  0  0  0  0  0  0
    7.5250   -4.5667    0.0000 C   0  0  0  0  0  0  0  0  0  0  0  0
    5.3792   -0.8292    0.0000 C   0  0  0  0  0  0  0  0  0  0  0  0
    4.6542   -2.0792    0.0000 C   0  0  0  0  0  0  0  0  0  0  0  0
    8.2417   -5.8125    0.0000 C   0  0  0  0  0  0  0  0  0  0  0  0
    3.9417   -0.8292    0.0000 C   0  0  0  0  0  0  0  0  0  0  0  0
    5.3917   -4.1500    0.0000 C   0  0  0  0  0  0  0  0  0  0  0  0
    7.5250   -5.3917    0.0000 C   0  0  0  0  0  0  0  0  0  0  0  0
    3.9417   -1.6625    0.0000 C   0  0  0  0  0  0  0  0  0  0  0  0
    4.6542   -0.4167    0.0000 C   0  0  0  0  0  0  0  0  0  0  0  0
    8.2417   -6.6417    0.0000 Cl  0  0  0  0  0  0  0  0  0  0  0  0
    3.2292   -0.4167    0.0000 F   0  0  0  0  0  0  0  0  0  0  0  0
    9.6875   -4.1417    0.0000 C   0  0  0  0  0  0  0  0  0  0  0  0
    4.6792   -4.5625    0.0000 C   0  0  0  0  0  0  0  0  0  0  0  0
    6.1042   -4.5500    0.0000 C   0  0  0  0  0  0  0  0  0  0  0  0
    6.1167   -5.3750    0.0000 C   0  0  0  0  0  0  0  0  0  0  0  0
    4.6875   -5.3875    0.0000 C   0  0  0  0  0  0  0  0  0  0  0  0
    5.4042   -5.8000    0.0000 C   0  0  0  0  0  0  0  0  0  0  0  0
  2  1  1  0  0  0  0
  3  2  1  0  0  0  0
  4  3  1  0  0  0  0
  5  1  1  0  0  0  0
  6  4  1  0  0  0  0
  7  6  1  0  0  0  0
  8  1  2  0  0  0  0
  9  1  2  0  0  0  0
 10  7  1  0  0  0  0
 11  2  1  0  0  0  0
 12  4  2  0  0  0  0
 13 10  2  0  0  0  0
 14  7  2  0  0  0  0
 15  5  1  0  0  0  0
 16  5  2  0  0  0  0
 17 20  2  0  0  0  0
 18 21  2  0  0  0  0
 19 11  1  0  0  0  0
 20 14  1  0  0  0  0
 21 16  1  0  0  0  0
 22 15  2  0  0  0  0
 23 17  1  0  0  0  0
 24 18  1  0  0  0  0
 25 10  1  0  0  0  0
 26 19  2  0  0  0  0
 27 19  1  0  0  0  0
 28 27  2  0  0  0  0
 29 26  1  0  0  0  0
 30 28  1  0  0  0  0
 22 18  1  0  0  0  0
 29 30  2  0  0  0  0
 17 13  1  0  0  0  0
M  END
>  <ID> (7030881)
7030881

>  <Supplier> (7030881)
ChemBridge

>  <clogP> (7030881)
5.090000000000000e+000

>  <RB> (7030881)
6

>  <tPSA> (7030881)
6.647999999999998e+001

>  <Hacc> (7030881)
4

>  <Hdon> (7030881)
1

>  <LogSw> (7030881)
-6.803999999999999e+000

>  <Group> (7030881)
3

>  <Core> (7030881)
084

$$$$
9109833
  -ISIS-  03310818292D

 23 25  0  0  0  0  0  0  0  0999 V2000
    6.3667    0.6375    0.0000 C   0  0  0  0  0  0  0  0  0  0  0  0
    7.0542    0.3333    0.0000 N   0  0  0  0  0  0  0  0  0  0  0  0
    6.4417    1.3833    0.0000 S   0  0  0  0  0  0  0  0  0  0  0  0
    5.7167    0.2625    0.0000 N   0  0  0  0  0  0  0  0  0  0  0  0
    7.5542    0.8958    0.0000 C   0  0  0  0  0  0  0  0  0  0  0  0
    7.1792    1.5458    0.0000 C   0  0  0  0  0  0  0  0  0  0  0  0
    2.4667    1.3875    0.0000 N   0  0  3  0  0  0  0  0  0  0  0  0
    5.0667    0.6375    0.0000 C   0  0  0  0  0  0  0  0  0  0  0  0
    3.7667    0.6375    0.0000 N   0  0  3  0  0  0  0  0  0  0  0  0
    4.4167    0.2625    0.0000 C   0  0  0  0  0  0  0  0  0  0  0  0
    3.1167    1.7625    0.0000 C   0  0  0  0  0  0  0  0  0  0  0  0
    2.4667    0.6375    0.0000 C   0  0  0  0  0  0  0  0  0  0  0  0
    1.8167    1.7625    0.0000 C   0  0  0  0  0  0  0  0  0  0  0  0
    5.0667    1.3875    0.0000 O   0  0  0  0  0  0  0  0  0  0  0  0
    3.1167    0.2625    0.0000 C   0  0  0  0  0  0  0  0  0  0  0  0
    3.7667    1.3875    0.0000 C   0  0  0  0  0  0  0  0  0  0  0  0
    8.3000    0.8125    0.0000 C   0  0  0  0  0  0  0  0  0  0  0  0
    7.4792    2.2250    0.0000 C   0  0  0  0  0  0  0  0  0  0  0  0
    1.8167    2.5208    0.0000 C   0  0  0  0  0  0  0  0  0  0  0  0
    1.1667    1.3875    0.0000 C   0  0  0  0  0  0  0  0  0  0  0  0
    0.5167    1.7625    0.0000 C   0  0  0  0  0  0  0  0  0  0  0  0
    1.1667    2.8958    0.0000 C   0  0  0  0  0  0  0  0  0  0  0  0
    0.5167    2.5208    0.0000 C   0  0  0  0  0  0  0  0  0  0  0  0
  2  1  2  0  0  0  0
  3  1  1  0  0  0  0
  4  1  1  0  0  0  0
  5  2  1  0  0  0  0
  6  3  1  0  0  0  0
  7 11  1  0  0  0  0
  8  4  1  0  0  0  0
  9 10  1  0  0  0  0
 10  8  1  0  0  0  0
 11 16  1  0  0  0  0
 12 15  1  0  0  0  0
 13  7  1  0  0  0  0
 14  8  2  0  0  0  0
 15  9  1  0  0  0  0
 16  9  1  0  0  0  0
 17  5  1  0  0  0  0
 18  6  1  0  0  0  0
 19 13  1  0  0  0  0
 20 13  2  0  0  0  0
 21 20  1  0  0  0  0
 22 19  2  0  0  0  0
 23 21  2  0  0  0  0
  6  5  2  0  0  0  0
  7 12  1  0  0  0  0
 22 23  1  0  0  0  0
M  END
>  <ID> (9109833)
9109833

>  <Supplier> (9109833)
ChemBridge

>  <clogP> (9109833)
2.837000000000000e+000

>  <RB> (9109833)
4

>  <tPSA> (9109833)
4.847000000000000e+001

>  <Hacc> (9109833)
3

>  <Hdon> (9109833)
1

>  <LogSw> (9109833)
-4.032000000000000e+000

>  <Group> (9109833)
2

>  <Core> (9109833)
227

$$$$
6648983
  -ISIS-  03310818242D

 29 32  0  0  0  0  0  0  0  0999 V2000
   -3.6708   -0.5000    0.0000 C   0  0  0  0  0  0  0  0  0  0  0  0
   -3.0333   -0.1042    0.0000 C   0  0  0  0  0  0  0  0  0  0  0  0
   -2.3958   -1.2167    0.0000 C   0  0  0  0  0  0  0  0  0  0  0  0
   -3.0333   -1.5792    0.0000 C   0  0  0  0  0  0  0  0  0  0  0  0
   -2.3958   -0.5000    0.0000 C   0  0  3  0  0  0  0  0  0  0  0  0
   -3.6708   -1.2167    0.0000 O   0  0  0  0  0  0  0  0  0  0  0  0
   -4.2208    0.0125    0.0000 N   0  0  0  0  0  0  0  0  0  0  0  0
   -3.9125    0.6708    0.0000 N   0  0  0  0  0  0  0  0  0  0  0  0
    0.8292    0.6125    0.0000 C   0  0  0  0  0  0  0  0  0  0  0  0
   -3.1958    0.5833    0.0000 C   0  0  0  0  0  0  0  0  0  0  0  0
   -1.7333   -1.5792    0.0000 C   0  0  0  0  0  0  0  0  0  0  0  0
    1.4667    0.9708    0.0000 C   0  0  0  0  0  0  0  0  0  0  0  0
   -1.0958   -1.9667    0.0000 N   0  0  0  0  0  0  0  0  0  0  0  0
   -1.7500   -0.1042    0.0000 C   0  0  0  0  0  0  0  0  0  0  0  0
    0.1875    0.9708    0.0000 O   0  0  0  0  0  0  0  0  0  0  0  0
    2.1667    0.7333    0.0000 O   0  0  0  0  0  0  0  0  0  0  0  0
    1.4667    1.6958    0.0000 C   0  0  0  0  0  0  0  0  0  0  0  0
    0.8292   -0.1375    0.0000 O   0  0  0  0  0  0  0  0  0  0  0  0
   -3.0333   -2.3292    0.0000 N   0  0  0  0  0  0  0  0  0  0  0  0
    2.5875    1.3625    0.0000 C   0  0  0  0  0  0  0  0  0  0  0  0
    2.1667    1.9333    0.0000 C   0  0  0  0  0  0  0  0  0  0  0  0
   -1.7500    0.6125    0.0000 C   0  0  0  0  0  0  0  0  0  0  0  0
   -1.1125   -0.5000    0.0000 C   0  0  0  0  0  0  0  0  0  0  0  0
   -0.4708    0.6125    0.0000 C   0  0  0  0  0  0  0  0  0  0  0  0
   -1.1125    0.9708    0.0000 C   0  0  0  0  0  0  0  0  0  0  0  0
   -0.4708   -0.1042    0.0000 C   0  0  0  0  0  0  0  0  0  0  0  0
   -2.6958    1.1500    0.0000 C   0  0  0  0  0  0  0  0  0  0  0  0
   -2.9500    1.8458    0.0000 C   0  0  0  0  0  0  0  0  0  0  0  0
   -2.4333    2.3958    0.0000 C   0  0  0  0  0  0  0  0  0  0  0  0
  2  1  2  0  0  0  0
  3  4  2  0  0  0  0
  4  6  1  0  0  0  0
  5  2  1  0  0  0  0
  6  1  1  0  0  0  0
  7  1  1  0  0  0  0
  8  7  1  0  0  0  0
  9 15  1  0  0  0  0
 10  2  1  0  0  0  0
 11  3  1  0  0  0  0
 12  9  1  0  0  0  0
 13 11  3  0  0  0  0
 14  5  1  0  0  0  0
 15 24  1  0  0  0  0
 16 12  1  0  0  0  0
 17 12  2  0  0  0  0
 18  9  2  0  0  0  0
 19  4  1  0  0  0  0
 20 16  1  0  0  0  0
 21 17  1  0  0  0  0
 22 14  2  0  0  0  0
 23 14  1  0  0  0  0
 24 26  1  0  0  0  0
 25 22  1  0  0  0  0
 26 23  2  0  0  0  0
 27 10  1  0  0  0  0
 28 27  1  0  0  0  0
 29 28  1  0  0  0  0
  8 10  2  0  0  0  0
  3  5  1  0  0  0  0
 25 24  2  0  0  0  0
 20 21  2  0  0  0  0
M  END
>  <ID> (6648983)
6648983

>  <Supplier> (6648983)
ChemBridge

>  <clogP> (6648983)
3.640000000000000e+000

>  <RB> (6648983)
4

>  <tPSA> (6648983)
1.271600000000000e+002

>  <Hacc> (6648983)
6

>  <Hdon> (6648983)
2

>  <LogSw> (6648983)
-4.412000000000000e+000

>  <Group> (6648983)
2

>  <Core> (6648983)
092

$$$$
6648980
  -ISIS-  03310818242D

 18 19  0  0  0  0  0  0  0  0999 V2000
    1.8542    0.2833    0.0000 C   0  0  0  0  0  0  0  0  0  0  0  0
    2.5667    0.6958    0.0000 O   0  0  0  0  0  0  0  0  0  0  0  0
    1.8500   -0.5417    0.0000 O   0  0  0  0  0  0  0  0  0  0  0  0
    0.4292    0.2750    0.0000 O   0  0  0  0  0  0  0  0  0  0  0  0
    1.1417    0.6958    0.0000 C   0  0  0  0  0  0  0  0  0  0  0  0
   -0.2875    0.6875    0.0000 C   0  0  0  0  0  0  0  0  0  0  0  0
   -1.7208    1.5125    0.0000 C   0  0  0  0  0  0  0  0  0  0  0  0
    3.2792    0.2833    0.0000 C   0  0  0  0  0  0  0  0  0  0  0  0
   -2.4333    1.9250    0.0000 F   0  0  0  0  0  0  0  0  0  0  0  0
   -0.2875    1.5208    0.0000 C   0  0  0  0  0  0  0  0  0  0  0  0
   -1.0083    0.2750    0.0000 C   0  0  0  0  0  0  0  0  0  0  0  0
   -1.0083    1.9333    0.0000 C   0  0  0  0  0  0  0  0  0  0  0  0
   -1.7208    0.6875    0.0000 C   0  0  0  0  0  0  0  0  0  0  0  0
    3.2792   -0.5417    0.0000 C   0  0  0  0  0  0  0  0  0  0  0  0
    3.9917    0.6958    0.0000 C   0  0  0  0  0  0  0  0  0  0  0  0
    4.7042    0.2833    0.0000 C   0  0  0  0  0  0  0  0  0  0  0  0
    3.9917   -0.9542    0.0000 C   0  0  0  0  0  0  0  0  0  0  0  0
    4.7042   -0.5417    0.0000 C   0  0  0  0  0  0  0  0  0  0  0  0
  2  1  1  0  0  0  0
  3  1  2  0  0  0  0
  4  5  1  0  0  0  0
  5  1  1  0  0  0  0
  6  4  1  0  0  0  0
  7 13  2  0  0  0  0
  8  2  1  0  0  0  0
  9  7  1  0  0  0  0
 10  6  1  0  0  0  0
 11  6  2  0  0  0  0
 12 10  2  0  0  0  0
 13 11  1  0  0  0  0
 14  8  2  0  0  0  0
 15  8  1  0  0  0  0
 16 15  2  0  0  0  0
 17 14  1  0  0  0  0
 18 16  1  0  0  0  0
  7 12  1  0  0  0  0
 18 17  2  0  0  0  0
M  END
>  <ID> (6648980)
6648980

>  <Supplier> (6648980)
ChemBridge

>  <clogP> (6648980)
3.210000000000000e+000

>  <RB> (6648980)
5

>  <tPSA> (6648980)
3.553000000000000e+001

>  <Hacc> (6648980)
3

>  <Hdon> (6648980)
0

>  <LogSw> (6648980)
-3.738000000000000e+000

>  <Group> (6648980)
2

>  <Core> (6648980)
314

$$$$
9106787
  -ISIS-  03310818292D

 25 28  0  0  0  0  0  0  0  0999 V2000
    2.6417    2.3583    0.0000 C   0  0  0  0  0  0  0  0  0  0  0  0
    2.6417    1.6083    0.0000 C   0  0  0  0  0  0  0  0  0  0  0  0
    3.8000    1.9833    0.0000 C   0  0  0  0  0  0  0  0  0  0  0  0
    3.3542    2.5875    0.0000 N   0  0  3  0  0  0  0  0  0  0  0  0
    3.3542    1.3750    0.0000 N   0  0  0  0  0  0  0  0  0  0  0  0
    1.9917    1.2333    0.0000 N   0  0  3  0  0  0  0  0  0  0  0  0
    1.3417    2.3583    0.0000 N   0  0  3  0  0  0  0  0  0  0  0  0
    1.3417    1.6083    0.0000 C   0  0  0  0  0  0  0  0  0  0  0  0
    1.9917    2.7333    0.0000 C   0  0  0  0  0  0  0  0  0  0  0  0
    4.5125    2.2125    0.0000 N   0  0  3  0  0  0  0  0  0  0  0  0
    3.8000    3.1958    0.0000 C   0  0  0  0  0  0  0  0  0  0  0  0
    4.5125    2.9625    0.0000 C   0  0  0  0  0  0  0  0  0  0  0  0
    5.1167    1.7708    0.0000 C   0  0  0  0  0  0  0  0  0  0  0  0
    0.6917    1.2333    0.0000 O   0  0  0  0  0  0  0  0  0  0  0  0
    1.9917    3.4833    0.0000 O   0  0  0  0  0  0  0  0  0  0  0  0
    0.6917    2.7333    0.0000 C   0  0  0  0  0  0  0  0  0  0  0  0
    1.9917    0.4833    0.0000 C   0  0  0  0  0  0  0  0  0  0  0  0
    5.0417    1.0250    0.0000 C   0  0  0  0  0  0  0  0  0  0  0  0
    5.8042    2.0833    0.0000 C   0  0  0  0  0  0  0  0  0  0  0  0
    5.1167    3.4083    0.0000 C   0  0  0  0  0  0  0  0  0  0  0  0
    6.3292    0.8958    0.0000 C   0  0  0  0  0  0  0  0  0  0  0  0
    6.4125    1.6375    0.0000 C   0  0  0  0  0  0  0  0  0  0  0  0
    5.6417    0.5833    0.0000 C   0  0  0  0  0  0  0  0  0  0  0  0
    6.9375    0.4500    0.0000 O   0  0  0  0  0  0  0  0  0  0  0  0
    0.6917    3.4833    0.0000 C   0  0  0  0  0  0  0  0  0  0  0  0
  2  1  2  0  0  0  0
  3  4  1  0  0  0  0
  4  1  1  0  0  0  0
  5  2  1  0  0  0  0
  6  2  1  0  0  0  0
  7  9  1  0  0  0  0
  8  7  1  0  0  0  0
  9  1  1  0  0  0  0
 10  3  1  0  0  0  0
 11  4  1  0  0  0  0
 12 11  2  0  0  0  0
 13 10  1  0  0  0  0
 14  8  2  0  0  0  0
 15  9  2  0  0  0  0
 16  7  1  0  0  0  0
 17  6  1  0  0  0  0
 18 13  2  0  0  0  0
 19 13  1  0  0  0  0
 20 12  1  0  0  0  0
 21 22  1  0  0  0  0
 22 19  2  0  0  0  0
 23 18  1  0  0  0  0
 24 21  1  0  0  0  0
 25 16  1  0  0  0  0
  3  5  2  0  0  0  0
  8  6  1  0  0  0  0
 12 10  1  0  0  0  0
 21 23  2  0  0  0  0
M  END
>  <ID> (9106787)
9106787

>  <Supplier> (9106787)
ChemBridge

>  <clogP> (9106787)
2.676000000000000e+000

>  <RB> (9106787)
1

>  <tPSA> (9106787)
8.646000000000001e+001

>  <Hacc> (9106787)
4

>  <Hdon> (9106787)
1

>  <LogSw> (9106787)
-3.371999999999999e+000

>  <Group> (9106787)
2

>  <Core> (9106787)
131

$$$$
9049366
  -ISIS-  03310818282D

 23 25  0  0  0  0  0  0  0  0999 V2000
    3.0167    1.8583    0.0000 N   0  0  3  0  0  0  0  0  0  0  0  0
    2.5792    1.2500    0.0000 C   0  0  0  0  0  0  0  0  0  0  0  0
    3.0167    0.6458    0.0000 N   0  0  0  0  0  0  0  0  0  0  0  0
    3.7292    1.6250    0.0000 C   0  0  0  0  0  0  0  0  0  0  0  0
    3.7292    0.8750    0.0000 N   0  0  0  0  0  0  0  0  0  0  0  0
    4.3417    2.0708    0.0000 S   0  0  0  0  0  0  0  0  0  0  0  0
    1.8292    1.2500    0.0000 C   0  0  0  0  0  0  0  0  0  0  0  0
    5.6292    2.2083    0.0000 C   0  0  0  0  0  0  0  0  0  0  0  0
    6.3167    1.8958    0.0000 N   0  0  0  0  0  0  0  0  0  0  0  0
    1.4542    1.9000    0.0000 N   0  0  0  0  0  0  0  0  0  0  0  0
    5.5542    2.9458    0.0000 O   0  0  0  0  0  0  0  0  0  0  0  0
    5.0250    1.7583    0.0000 C   0  0  0  0  0  0  0  0  0  0  0  0
    2.7875    2.5708    0.0000 C   0  0  0  0  0  0  0  0  0  0  0  0
    6.9250    2.3375    0.0000 C   0  0  0  0  0  0  0  0  0  0  0  0
    0.7042    1.9000    0.0000 C   0  0  0  0  0  0  0  0  0  0  0  0
    1.4542    0.6000    0.0000 C   0  0  0  0  0  0  0  0  0  0  0  0
    7.6042    2.0333    0.0000 C   0  0  0  0  0  0  0  0  0  0  0  0
    6.8417    3.0833    0.0000 C   0  0  0  0  0  0  0  0  0  0  0  0
    0.3292    1.2500    0.0000 C   0  0  0  0  0  0  0  0  0  0  0  0
    0.7042    0.6000    0.0000 C   0  0  0  0  0  0  0  0  0  0  0  0
    7.4542    3.5250    0.0000 C   0  0  0  0  0  0  0  0  0  0  0  0
    8.2167    2.4708    0.0000 C   0  0  0  0  0  0  0  0  0  0  0  0
    8.1375    3.2208    0.0000 C   0  0  0  0  0  0  0  0  0  0  0  0
  2  1  1  0  0  0  0
  3  2  2  0  0  0  0
  4  1  1  0  0  0  0
  5  4  2  0  0  0  0
  6  4  1  0  0  0  0
  7  2  1  0  0  0  0
  8 12  1  0  0  0  0
  9  8  1  0  0  0  0
 10  7  1  0  0  0  0
 11  8  2  0  0  0  0
 12  6  1  0  0  0  0
 13  1  1  0  0  0  0
 14  9  1  0  0  0  0
 15 10  2  0  0  0  0
 16  7  2  0  0  0  0
 17 14  1  0  0  0  0
 18 14  2  0  0  0  0
 19 20  2  0  0  0  0
 20 16  1  0  0  0  0
 21 18  1  0  0  0  0
 22 17  2  0  0  0  0
 23 21  2  0  0  0  0
  3  5  1  0  0  0  0
 15 19  1  0  0  0  0
 22 23  1  0  0  0  0
M  END
>  <ID> (9049366)
9049366

>  <Supplier> (9049366)
ChemBridge

>  <clogP> (9049366)
1.049000000000000e+000

>  <RB> (9049366)
5

>  <tPSA> (9049366)
7.270000000000000e+001

>  <Hacc> (9049366)
4

>  <Hdon> (9049366)
1

>  <LogSw> (9049366)
-3.085000000000000e+000

>  <Group> (9049366)
3

>  <Core> (9049366)
009

$$$$
5813337
  -ISIS-  03310818222D

 23 25  0  0  0  0  0  0  0  0999 V2000
    2.1042   -1.9542    0.0000 N   0  0  0  0  0  0  0  0  0  0  0  0
    1.4917   -1.5125    0.0000 C   0  0  0  0  0  0  0  0  0  0  0  0
    1.7292   -0.8000    0.0000 N   0  0  0  0  0  0  0  0  0  0  0  0
    2.7042   -1.5125    0.0000 C   0  0  0  0  0  0  0  0  0  0  0  0
    2.4792   -0.8000    0.0000 O   0  0  0  0  0  0  0  0  0  0  0  0
    0.7792   -1.7417    0.0000 C   0  0  0  0  0  0  0  0  0  0  0  0
    6.8292   -2.1792    0.0000 C   0  0  3  0  0  0  0  0  0  0  0  0
    6.1167   -1.9500    0.0000 C   0  0  0  0  0  0  0  0  0  0  0  0
   -0.4875   -1.4792    0.0000 N   0  0  0  0  0  0  0  0  0  0  0  0
    3.4167   -1.7417    0.0000 C   0  0  0  0  0  0  0  0  0  0  0  0
    5.5542   -2.4500    0.0000 C   0  0  0  0  0  0  0  0  0  0  0  0
    5.9625   -1.2167    0.0000 C   0  0  0  0  0  0  0  0  0  0  0  0
    3.9792   -1.2417    0.0000 O   0  0  0  0  0  0  0  0  0  0  0  0
    4.6917   -1.4792    0.0000 C   0  0  0  0  0  0  0  0  0  0  0  0
    0.2250   -1.2417    0.0000 C   0  0  0  0  0  0  0  0  0  0  0  0
    5.2500   -0.9792    0.0000 C   0  0  0  0  0  0  0  0  0  0  0  0
    4.8417   -2.2167    0.0000 C   0  0  0  0  0  0  0  0  0  0  0  0
    0.6250   -2.4792    0.0000 C   0  0  0  0  0  0  0  0  0  0  0  0
    7.3292   -2.7417    0.0000 C   0  0  0  0  0  0  0  0  0  0  0  0
    6.9792   -2.9167    0.0000 C   0  0  0  0  0  0  0  0  0  0  0  0
    7.3875   -1.6792    0.0000 C   0  0  0  0  0  0  0  0  0  0  0  0
   -0.6458   -2.2125    0.0000 C   0  0  0  0  0  0  0  0  0  0  0  0
   -0.0875   -2.7125    0.0000 C   0  0  0  0  0  0  0  0  0  0  0  0
  2  1  1  0  0  0  0
  3  2  2  0  0  0  0
  4  1  2  0  0  0  0
  5  4  1  0  0  0  0
  6  2  1  0  0  0  0
  7  8  1  0  0  0  0
  8 11  1  0  0  0  0
  9 15  2  0  0  0  0
 10  4  1  0  0  0  0
 11 17  2  0  0  0  0
 12 16  1  0  0  0  0
 13 10  1  0  0  0  0
 14 13  1  0  0  0  0
 15  6  1  0  0  0  0
 16 14  2  0  0  0  0
 17 14  1  0  0  0  0
 18  6  2  0  0  0  0
 19  7  1  0  0  0  0
 20  7  1  0  0  0  0
 21  7  1  0  0  0  0
 22 23  2  0  0  0  0
 23 18  1  0  0  0  0
  5  3  1  0  0  0  0
 22  9  1  0  0  0  0
 12  8  2  0  0  0  0
M  END
>  <ID> (5813337)
5813337

>  <Supplier> (5813337)
ChemBridge

>  <clogP> (5813337)
3.660000000000000e+000

>  <RB> (5813337)
5

>  <tPSA> (5813337)
6.103999999999999e+001

>  <Hacc> (5813337)
5

>  <Hdon> (5813337)
0

>  <LogSw> (5813337)
-4.582000000000000e+000

>  <Group> (5813337)
3

>  <Core> (5813337)
201

$$$$
6046587
  -ISIS-  03310818232D

 21 21  0  0  0  0  0  0  0  0999 V2000
   -1.7333    0.0625    0.0000 C   0  0  0  0  0  0  0  0  0  0  0  0
   -2.6958    0.6000    0.0000 C   0  0  0  0  0  0  0  0  0  0  0  0
   -1.7333   -1.0792    0.0000 C   0  0  0  0  0  0  0  0  0  0  0  0
   -2.6958   -1.6500    0.0000 O   0  0  0  0  0  0  0  0  0  0  0  0
   -3.6708    0.0333    0.0000 O   0  0  0  0  0  0  0  0  0  0  0  0
   -3.6708   -1.0792    0.0000 C   0  0  3  0  0  0  0  0  0  0  0  0
   -0.7500    0.6333    0.0000 C   0  0  0  0  0  0  0  0  0  0  0  0
    0.2500    0.0625    0.0000 N   0  0  0  0  0  0  0  0  0  0  0  0
    1.2292    1.7458    0.0000 C   0  0  0  0  0  0  0  0  0  0  0  0
    4.1500    0.0958    0.0000 C   0  0  0  0  0  0  0  0  0  0  0  0
   -0.7500   -1.6792    0.0000 O   0  0  0  0  0  0  0  0  0  0  0  0
   -2.6958    1.7458    0.0000 O   0  0  0  0  0  0  0  0  0  0  0  0
    1.2292    0.6333    0.0000 C   0  0  3  0  0  0  0  0  0  0  0  0
    0.2500    2.3125    0.0000 O   0  0  0  0  0  0  0  0  0  0  0  0
    5.1292    0.6625    0.0000 O   0  0  0  0  0  0  0  0  0  0  0  0
    2.1875    0.0625    0.0000 C   0  0  0  0  0  0  0  0  0  0  0  0
    3.1667    0.6333    0.0000 C   0  0  0  0  0  0  0  0  0  0  0  0
    2.2042    2.3125    0.0000 O   0  0  0  0  0  0  0  0  0  0  0  0
    4.1500   -1.0500    0.0000 O   0  0  0  0  0  0  0  0  0  0  0  0
   -3.3958   -2.1542    0.0000 C   0  0  0  0  0  0  0  0  0  0  0  0
   -4.7958   -1.2542    0.0000 C   0  0  0  0  0  0  0  0  0  0  0  0
  2  1  1  0  0  0  0
  3  1  1  0  0  0  0
  4  3  1  0  0  0  0
  5  2  1  0  0  0  0
  6  4  1  0  0  0  0
  7  1  2  0  0  0  0
  8  7  1  0  0  0  0
  9 13  1  0  0  0  0
 10 17  1  0  0  0  0
 11  3  2  0  0  0  0
 12  2  2  0  0  0  0
 13  8  1  0  0  0  0
 14  9  2  0  0  0  0
 15 10  2  0  0  0  0
 16 13  1  0  0  0  0
 17 16  1  0  0  0  0
 18  9  1  0  0  0  0
 19 10  1  0  0  0  0
 20  6  1  0  0  0  0
 21  6  1  0  0  0  0
  5  6  1  0  0  0  0
M  END
>  <ID> (6046587)
6046587

>  <Supplier> (6046587)
ChemBridge

>  <clogP> (6046587)
-3.050000000000000e+000

>  <RB> (6046587)
6

>  <tPSA> (6046587)
1.392300000000000e+002

>  <Hacc> (6046587)
8

>  <Hdon> (6046587)
3

>  <LogSw> (6046587)
-8.620000000000001e-001

>  <Group> (6046587)
3

>  <Core> (6046587)
377

$$$$
7940186
  -ISIS-  03310818272D

 31 33  0  0  0  0  0  0  0  0999 V2000
    8.6500    1.6750    0.0000 S   0  0  3  0  0  0  0  0  0  0  0  0
    7.9250    1.8708    0.0000 C   0  0  0  0  0  0  0  0  0  0  0  0
    7.3917    1.3375    0.0000 C   0  0  0  0  0  0  0  0  0  0  0  0
    7.7292    2.5958    0.0000 C   0  0  0  0  0  0  0  0  0  0  0  0
    7.5375    3.3208    0.0000 N   0  0  0  0  0  0  0  0  0  0  0  0
    9.0250    2.3333    0.0000 C   0  0  0  0  0  0  0  0  0  0  0  0
    8.3917    0.9708    0.0000 O   0  0  0  0  0  0  0  0  0  0  0  0
    9.3292    1.3583    0.0000 O   0  0  0  0  0  0  0  0  0  0  0  0
    5.7500    2.4583    0.0000 C   0  0  0  0  0  0  0  0  0  0  0  0
    5.2167    1.9208    0.0000 C   0  0  0  0  0  0  0  0  0  0  0  0
    6.6667    1.5333    0.0000 C   0  0  0  0  0  0  0  0  0  0  0  0
    6.4750    2.2583    0.0000 C   0  0  0  0  0  0  0  0  0  0  0  0
    4.4917    2.1208    0.0000 O   0  0  0  0  0  0  0  0  0  0  0  0
    9.7750    2.3333    0.0000 C   0  0  0  0  0  0  0  0  0  0  0  0
    8.6500    2.9833    0.0000 C   0  0  0  0  0  0  0  0  0  0  0  0
    5.4167    1.1958    0.0000 C   0  0  0  0  0  0  0  0  0  0  0  0
    6.1417    1.0083    0.0000 C   0  0  0  0  0  0  0  0  0  0  0  0
    3.9667    1.5875    0.0000 C   0  0  0  0  0  0  0  0  0  0  0  0
    1.7917    2.1708    0.0000 C   0  0  0  0  0  0  0  0  0  0  0  0
    3.2417    1.7833    0.0000 C   0  0  0  0  0  0  0  0  0  0  0  0
    5.5542    3.1750    0.0000 O   0  0  0  0  0  0  0  0  0  0  0  0
   10.1417    2.9833    0.0000 C   0  0  0  0  0  0  0  0  0  0  0  0
    9.0250    3.6250    0.0000 C   0  0  0  0  0  0  0  0  0  0  0  0
    9.7750    3.6250    0.0000 C   0  0  0  0  0  0  0  0  0  0  0  0
    1.0667    2.3625    0.0000 Cl  0  0  0  0  0  0  0  0  0  0  0  0
    1.9875    1.4458    0.0000 C   0  0  0  0  0  0  0  0  0  0  0  0
    2.3167    2.7083    0.0000 C   0  0  0  0  0  0  0  0  0  0  0  0
    2.7125    1.2500    0.0000 C   0  0  0  0  0  0  0  0  0  0  0  0
    3.0500    2.5083    0.0000 C   0  0  0  0  0  0  0  0  0  0  0  0
   10.1417    4.2667    0.0000 C   0  0  0  0  0  0  0  0  0  0  0  0
    6.0875    3.7083    0.0000 C   0  0  0  0  0  0  0  0  0  0  0  0
  2  1  1  0  0  0  0
  3  2  2  0  0  0  0
  4  2  1  0  0  0  0
  5  4  3  0  0  0  0
  6  1  1  0  0  0  0
  7  1  2  0  0  0  0
  8  1  2  0  0  0  0
  9 12  1  0  0  0  0
 10 16  1  0  0  0  0
 11  3  1  0  0  0  0
 12 11  2  0  0  0  0
 13 10  1  0  0  0  0
 14  6  1  0  0  0  0
 15  6  2  0  0  0  0
 16 17  2  0  0  0  0
 17 11  1  0  0  0  0
 18 13  1  0  0  0  0
 19 27  2  0  0  0  0
 20 18  1  0  0  0  0
 21  9  1  0  0  0  0
 22 14  2  0  0  0  0
 23 15  1  0  0  0  0
 24 23  2  0  0  0  0
 25 19  1  0  0  0  0
 26 28  2  0  0  0  0
 27 29  1  0  0  0  0
 28 20  1  0  0  0  0
 29 20  2  0  0  0  0
 30 24  1  0  0  0  0
 31 21  1  0  0  0  0
 22 24  1  0  0  0  0
 10  9  2  0  0  0  0
 26 19  1  0  0  0  0
M  END
>  <ID> (7940186)
7940186

>  <Supplier> (7940186)
ChemBridge

>  <clogP> (7940186)
5.005000000000000e+000

>  <RB> (7940186)
6

>  <tPSA> (7940186)
7.639000000000000e+001

>  <Hacc> (7940186)
5

>  <Hdon> (7940186)
0

>  <LogSw> (7940186)
-7.048000000000000e+000

>  <Group> (7940186)
1

>  <Core> (7940186)
383

$$$$
7940184
  -ISIS-  03310818272D

 27 29  0  0  0  0  0  0  0  0999 V2000
    5.7542    3.1833    0.0000 S   0  0  3  0  0  0  0  0  0  0  0  0
    4.4625    4.6667    0.0000 C   0  0  0  0  0  0  0  0  0  0  0  0
    5.1042    3.5583    0.0000 N   0  0  3  0  0  0  0  0  0  0  0  0
    3.8125    5.7917    0.0000 N   0  0  0  0  0  0  0  0  0  0  0  0
    4.4625    5.4167    0.0000 C   0  0  0  0  0  0  0  0  0  0  0  0
    5.1042    4.2917    0.0000 C   0  0  0  0  0  0  0  0  0  0  0  0
    3.1625    5.4167    0.0000 C   0  0  0  0  0  0  0  0  0  0  0  0
    3.8125    4.2917    0.0000 C   0  0  0  0  0  0  0  0  0  0  0  0
    3.1625    4.6667    0.0000 C   0  0  0  0  0  0  0  0  0  0  0  0
    6.2917    3.7083    0.0000 O   0  0  0  0  0  0  0  0  0  0  0  0
    5.3292    2.5625    0.0000 O   0  0  0  0  0  0  0  0  0  0  0  0
    4.4625    3.1833    0.0000 C   0  0  0  0  0  0  0  0  0  0  0  0
    2.5042    5.7917    0.0000 C   0  0  0  0  0  0  0  0  0  0  0  0
    2.5042    4.2917    0.0000 C   0  0  0  0  0  0  0  0  0  0  0  0
    3.8125    3.5583    0.0000 C   0  0  0  0  0  0  0  0  0  0  0  0
    4.4625    2.4333    0.0000 C   0  0  0  0  0  0  0  0  0  0  0  0
    6.3292    2.6958    0.0000 C   0  0  0  0  0  0  0  0  0  0  0  0
    5.1042    5.7917    0.0000 O   0  0  0  0  0  0  0  0  0  0  0  0
    1.8625    5.4167    0.0000 C   0  0  0  0  0  0  0  0  0  0  0  0
    3.1625    2.4333    0.0000 C   0  0  0  0  0  0  0  0  0  0  0  0
    1.8625    4.6667    0.0000 C   0  0  0  0  0  0  0  0  0  0  0  0
    3.1625    3.1833    0.0000 C   0  0  0  0  0  0  0  0  0  0  0  0
    3.8125    2.0583    0.0000 C   0  0  0  0  0  0  0  0  0  0  0  0
    2.5042    2.0583    0.0000 O   0  0  0  0  0  0  0  0  0  0  0  0
    1.2125    5.7917    0.0000 C   0  0  0  0  0  0  0  0  0  0  0  0
    2.5042    1.3083    0.0000 C   0  0  0  0  0  0  0  0  0  0  0  0
    1.8625    0.9333    0.0000 C   0  0  0  0  0  0  0  0  0  0  0  0
  2  6  1  0  0  0  0
  3  1  1  0  0  0  0
  4  5  2  0  0  0  0
  5  2  1  0  0  0  0
  6  3  1  0  0  0  0
  7  9  2  0  0  0  0
  8  2  2  0  0  0  0
  9  8  1  0  0  0  0
 10  1  2  0  0  0  0
 11  1  2  0  0  0  0
 12  3  1  0  0  0  0
 13  7  1  0  0  0  0
 14  9  1  0  0  0  0
 15 12  1  0  0  0  0
 16 12  2  0  0  0  0
 17  1  1  0  0  0  0
 18  5  1  0  0  0  0
 19 21  1  0  0  0  0
 20 23  2  0  0  0  0
 21 14  2  0  0  0  0
 22 15  2  0  0  0  0
 23 16  1  0  0  0  0
 24 20  1  0  0  0  0
 25 19  1  0  0  0  0
 26 24  1  0  0  0  0
 27 26  1  0  0  0  0
 20 22  1  0  0  0  0
  4  7  1  0  0  0  0
 13 19  2  0  0  0  0
M  END
>  <ID> (7940184)
7940184

>  <Supplier> (7940184)
ChemBridge

>  <clogP> (7940184)
3.960000000000000e+000

>  <RB> (7940184)
3

>  <tPSA> (7940184)
7.973000000000000e+001

>  <Hacc> (7940184)
5

>  <Hdon> (7940184)
1

>  <LogSw> (7940184)
-5.399000000000000e+000

>  <Group> (7940184)
2

$$$$
7131670
  -ISIS-  03310818252D

 27 30  0  0  0  0  0  0  0  0999 V2000
   -0.7833    1.2958    0.0000 N   0  0  3  0  0  0  0  0  0  0  0  0
   -0.5333    0.5083    0.0000 C   0  0  0  0  0  0  0  0  0  0  0  0
   -0.1208    1.7750    0.0000 C   0  0  0  0  0  0  0  0  0  0  0  0
    0.5500    1.2958    0.0000 C   0  0  0  0  0  0  0  0  0  0  0  0
    0.2917    0.5083    0.0000 N   0  0  0  0  0  0  0  0  0  0  0  0
    1.3375    1.5458    0.0000 C   0  0  0  0  0  0  0  0  0  0  0  0
    1.5042    2.3500    0.0000 C   0  0  0  0  0  0  0  0  0  0  0  0
    2.4625    3.4083    0.0000 C   0  0  0  0  0  0  0  0  0  0  0  0
    1.8542    3.9625    0.0000 C   0  0  0  0  0  0  0  0  0  0  0  0
    1.0667    3.7083    0.0000 C   0  0  0  0  0  0  0  0  0  0  0  0
   -1.5708    1.5458    0.0000 C   0  0  0  0  0  0  0  0  0  0  0  0
    2.2917    2.6000    0.0000 C   0  0  0  0  0  0  0  0  0  0  0  0
    0.8917    2.9000    0.0000 C   0  0  0  0  0  0  0  0  0  0  0  0
   -1.0208   -0.1542    0.0000 O   0  0  0  0  0  0  0  0  0  0  0  0
    1.8500    4.7792    0.0000 O   0  0  0  0  0  0  0  0  0  0  0  0
    0.5792    4.3667    0.0000 O   0  0  0  0  0  0  0  0  0  0  0  0
   -0.1208    2.6000    0.0000 O   0  0  0  0  0  0  0  0  0  0  0  0
    1.0625    5.0292    0.0000 C   0  0  0  0  0  0  0  0  0  0  0  0
   -1.7458    2.3500    0.0000 C   0  0  0  0  0  0  0  0  0  0  0  0
   -2.0750    3.9708    0.0000 C   0  0  0  0  0  0  0  0  0  0  0  0
    2.9000    2.0500    0.0000 O   0  0  0  0  0  0  0  0  0  0  0  0
   -2.2500    4.7750    0.0000 F   0  0  0  0  0  0  0  0  0  0  0  0
   -1.1250    2.9083    0.0000 C   0  0  0  0  0  0  0  0  0  0  0  0
   -2.5208    2.6083    0.0000 C   0  0  0  0  0  0  0  0  0  0  0  0
   -1.2958    3.7125    0.0000 C   0  0  0  0  0  0  0  0  0  0  0  0
   -2.6958    3.4208    0.0000 C   0  0  0  0  0  0  0  0  0  0  0  0
    3.6875    2.3000    0.0000 C   0  0  0  0  0  0  0  0  0  0  0  0
  2  1  1  0  0  0  0
  3  1  1  0  0  0  0
  4  3  1  0  0  0  0
  5  2  1  0  0  0  0
  6  4  2  0  0  0  0
  7  6  1  0  0  0  0
  8 12  1  0  0  0  0
  9 10  1  0  0  0  0
 10 13  2  0  0  0  0
 11  1  1  0  0  0  0
 12  7  2  0  0  0  0
 13  7  1  0  0  0  0
 14  2  2  0  0  0  0
 15  9  1  0  0  0  0
 16 10  1  0  0  0  0
 17  3  2  0  0  0  0
 18 16  1  0  0  0  0
 19 11  1  0  0  0  0
 20 26  1  0  0  0  0
 21 12  1  0  0  0  0
 22 20  1  0  0  0  0
 23 19  2  0  0  0  0
 24 19  1  0  0  0  0
 25 23  1  0  0  0  0
 26 24  2  0  0  0  0
 27 21  1  0  0  0  0
  5  4  1  0  0  0  0
 25 20  2  0  0  0  0
  8  9  2  0  0  0  0
 15 18  1  0  0  0  0
M  END
>  <ID> (7131670)
7131670

>  <Supplier> (7131670)
ChemBridge

>  <clogP> (7131670)
2.330000000000000e+000

>  <RB> (7131670)
3

>  <tPSA> (7131670)
7.709999999999999e+001

>  <Hacc> (7131670)
5

>  <Hdon> (7131670)
1

>  <LogSw> (7131670)
-3.890000000000000e+000

>  <Group> (7131670)
1

>  <Core> (7131670)
003

$$$$
9062744
  -ISIS-  03310818282D

 24 26  0  0  0  0  0  0  0  0999 V2000
    2.6125    1.1458    0.0000 C   0  0  0  0  0  0  0  0  0  0  0  0
    3.0542    0.5375    0.0000 N   0  0  0  0  0  0  0  0  0  0  0  0
    3.0542    1.7500    0.0000 N   0  0  0  0  0  0  0  0  0  0  0  0
    3.7667    0.7708    0.0000 N   0  0  3  0  0  0  0  0  0  0  0  0
    3.7667    1.5208    0.0000 N   0  0  0  0  0  0  0  0  0  0  0  0
    4.3750    0.3333    0.0000 C   0  0  0  0  0  0  0  0  0  0  0  0
    1.8625    1.1458    0.0000 C   0  0  0  0  0  0  0  0  0  0  0  0
    5.0625    0.6333    0.0000 C   0  0  0  0  0  0  0  0  0  0  0  0
    7.6417    0.3625    0.0000 C   0  0  0  0  0  0  0  0  0  0  0  0
    1.4875    1.7958    0.0000 C   0  0  0  0  0  0  0  0  0  0  0  0
    5.1375    1.3833    0.0000 O   0  0  0  0  0  0  0  0  0  0  0  0
    8.2500   -0.0792    0.0000 C   0  0  0  0  0  0  0  0  0  0  0  0
    5.6667    0.1958    0.0000 N   0  0  0  0  0  0  0  0  0  0  0  0
    6.3542    0.4958    0.0000 C   0  0  0  0  0  0  0  0  0  0  0  0
    6.9542    0.0583    0.0000 C   0  0  0  0  0  0  0  0  0  0  0  0
    1.4875    0.4958    0.0000 C   0  0  0  0  0  0  0  0  0  0  0  0
    7.7167    1.1083    0.0000 C   0  0  0  0  0  0  0  0  0  0  0  0
    1.8625    2.4458    0.0000 C   0  0  0  0  0  0  0  0  0  0  0  0
    0.7375    1.7958    0.0000 C   0  0  0  0  0  0  0  0  0  0  0  0
    8.9375    0.2250    0.0000 C   0  0  0  0  0  0  0  0  0  0  0  0
    0.7375    0.4958    0.0000 C   0  0  0  0  0  0  0  0  0  0  0  0
    8.4042    1.4125    0.0000 C   0  0  0  0  0  0  0  0  0  0  0  0
    9.0125    0.9708    0.0000 C   0  0  0  0  0  0  0  0  0  0  0  0
    0.3625    1.1458    0.0000 C   0  0  0  0  0  0  0  0  0  0  0  0
  2  1  2  0  0  0  0
  3  1  1  0  0  0  0
  4  2  1  0  0  0  0
  5  3  2  0  0  0  0
  6  4  1  0  0  0  0
  7  1  1  0  0  0  0
  8  6  1  0  0  0  0
  9 15  1  0  0  0  0
 10  7  2  0  0  0  0
 11  8  2  0  0  0  0
 12  9  2  0  0  0  0
 13  8  1  0  0  0  0
 14 13  1  0  0  0  0
 15 14  1  0  0  0  0
 16  7  1  0  0  0  0
 17  9  1  0  0  0  0
 18 10  1  0  0  0  0
 19 10  1  0  0  0  0
 20 12  1  0  0  0  0
 21 16  2  0  0  0  0
 22 17  1  0  0  0  0
 23 22  1  0  0  0  0
 24 21  1  0  0  0  0
  5  4  1  0  0  0  0
 24 19  2  0  0  0  0
 23 20  1  0  0  0  0
M  END
>  <ID> (9062744)
9062744

>  <Supplier> (9062744)
ChemBridge

>  <clogP> (9062744)
3.669000000000000e+000

>  <RB> (9062744)
6

>  <tPSA> (9062744)
7.270000000000000e+001

>  <Hacc> (9062744)
4

>  <Hdon> (9062744)
1

>  <LogSw> (9062744)
-4.592000000000000e+000

>  <Group> (9062744)
1

>  <Core> (9062744)
348

$$$$
7940180
  -ISIS-  03310818272D

 35 40  0  0  0  0  0  0  0  0999 V2000
    2.5167    1.4375    0.0000 N   0  0  3  0  0  0  0  0  0  0  0  0
    2.8250    2.1250    0.0000 C   0  0  0  0  0  0  0  0  0  0  0  0
    1.7750    1.5208    0.0000 C   0  0  0  0  0  0  0  0  0  0  0  0
    1.6167    3.7500    0.0000 C   0  0  3  0  0  0  0  0  0  0  0  0
    0.9667    3.3750    0.0000 C   0  0  3  0  0  0  0  0  0  0  0  0
    2.8917    0.7958    0.0000 N   0  0  3  0  0  0  0  0  0  0  0  0
    2.2667    2.6250    0.0000 C   0  0  3  0  0  0  0  0  0  0  0  0
    1.6167    2.2500    0.0000 C   0  0  3  0  0  0  0  0  0  0  0  0
    1.6167    3.0000    0.0000 C   0  0  3  0  0  0  0  0  0  0  0  0
    0.9667    2.6250    0.0000 C   0  0  3  0  0  0  0  0  0  0  0  0
    0.9667    4.1167    0.0000 C   0  0  0  0  0  0  0  0  0  0  0  0
    2.5167    0.1458    0.0000 C   0  0  0  0  0  0  0  0  0  0  0  0
    3.6417    0.7958    0.0000 C   0  0  0  0  0  0  0  0  0  0  0  0
    0.3167    2.2500    0.0000 C   0  0  0  0  0  0  0  0  0  0  0  0
    0.5125    2.9833    0.0000 C   0  0  0  0  0  0  0  0  0  0  0  0
    4.0167    1.4375    0.0000 C   0  0  0  0  0  0  0  0  0  0  0  0
    1.2667    0.9625    0.0000 O   0  0  0  0  0  0  0  0  0  0  0  0
    3.5542    2.2833    0.0000 O   0  0  0  0  0  0  0  0  0  0  0  0
    2.8917   -0.5042    0.0000 C   0  0  0  0  0  0  0  0  0  0  0  0
    4.7667    1.4375    0.0000 C   0  0  0  0  0  0  0  0  0  0  0  0
    1.7667    0.1458    0.0000 O   0  0  0  0  0  0  0  0  0  0  0  0
    5.1417    2.0875    0.0000 C   0  0  0  0  0  0  0  0  0  0  0  0
    3.7542    1.8958    0.0000 O   0  0  0  0  0  0  0  0  0  0  0  0
    2.5167   -1.1542    0.0000 C   0  0  0  0  0  0  0  0  0  0  0  0
    3.6417   -0.5042    0.0000 C   0  0  0  0  0  0  0  0  0  0  0  0
    3.6417   -1.8042    0.0000 C   0  0  0  0  0  0  0  0  0  0  0  0
    5.8917    2.0875    0.0000 C   0  0  0  0  0  0  0  0  0  0  0  0
    2.8917   -1.8042    0.0000 C   0  0  0  0  0  0  0  0  0  0  0  0
    4.0167   -1.1542    0.0000 C   0  0  0  0  0  0  0  0  0  0  0  0
    4.0167   -2.4542    0.0000 Cl  0  0  0  0  0  0  0  0  0  0  0  0
    6.2667    2.7375    0.0000 O   0  0  0  0  0  0  0  0  0  0  0  0
    5.1417    0.7958    0.0000 C   0  0  0  0  0  0  0  0  0  0  0  0
    5.8917    0.7958    0.0000 C   0  0  0  0  0  0  0  0  0  0  0  0
    6.2667    1.4375    0.0000 C   0  0  0  0  0  0  0  0  0  0  0  0
    7.0167    2.7375    0.0000 C   0  0  0  0  0  0  0  0  0  0  0  0
  2  1  1  0  0  0  0
  3  1  1  0  0  0  0
  4  9  1  0  0  0  0
  5 10  1  0  0  0  0
  6  1  1  0  0  0  0
  7  2  1  0  0  0  0
  8  3  1  0  0  0  0
  9  7  1  0  0  0  0
 10  8  1  0  0  0  0
 11  5  1  0  0  0  0
 12  6  1  0  0  0  0
 13  6  1  0  0  0  0
 14 10  1  0  0  0  0
 15  9  1  0  0  0  0
 16 13  1  0  0  0  0
 17  3  2  0  0  0  0
 18  2  2  0  0  0  0
 19 12  1  0  0  0  0
 20 16  1  0  0  0  0
 21 12  2  0  0  0  0
 22 20  1  0  0  0  0
 23 16  2  0  0  0  0
 24 19  2  0  0  0  0
 25 19  1  0  0  0  0
 26 29  1  0  0  0  0
 27 22  2  0  0  0  0
 28 24  1  0  0  0  0
 29 25  2  0  0  0  0
 30 26  1  0  0  0  0
 31 27  1  0  0  0  0
 32 20  2  0  0  0  0
 33 32  1  0  0  0  0
 34 33  2  0  0  0  0
 35 31  1  0  0  0  0
  7  8  1  0  0  0  0
  5  4  1  0  0  0  0
 15 14  2  0  0  0  0
 28 26  2  0  0  0  0
  4 11  1  0  0  0  0
 27 34  1  0  0  0  0
M  END
>  <ID> (7940180)
7940180

>  <Supplier> (7940180)
ChemBridge

>  <clogP> (7940180)
4.039000000000002e+000

>  <RB> (7940180)
5

>  <tPSA> (7940180)
8.399000000000002e+001

>  <Hacc> (7940180)
5

>  <Hdon> (7940180)
0

>  <LogSw> (7940180)
-6.226999999999999e+000

>  <Group> (7940180)
1

>  <Core> (7940180)
311

$$$$
7940181
  -ISIS-  03310818272D

 29 31  0  0  0  0  0  0  0  0999 V2000
    6.7042    1.7708    0.0000 S   0  0  3  0  0  0  0  0  0  0  0  0
    7.0792    2.4208    0.0000 C   0  0  0  0  0  0  0  0  0  0  0  0
    5.9792    1.9583    0.0000 N   0  0  3  0  0  0  0  0  0  0  0  0
    3.8125    2.5458    0.0000 C   0  0  0  0  0  0  0  0  0  0  0  0
    7.8292    2.4208    0.0000 C   0  0  0  0  0  0  0  0  0  0  0  0
    3.2792    2.0208    0.0000 N   0  0  0  0  0  0  0  0  0  0  0  0
    6.4500    1.0583    0.0000 O   0  0  0  0  0  0  0  0  0  0  0  0
    7.3875    1.4500    0.0000 O   0  0  0  0  0  0  0  0  0  0  0  0
    6.7042    3.0625    0.0000 C   0  0  0  0  0  0  0  0  0  0  0  0
    4.5292    2.3458    0.0000 C   0  0  3  0  0  0  0  0  0  0  0  0
    5.4542    1.4333    0.0000 C   0  0  0  0  0  0  0  0  0  0  0  0
    5.7917    2.6833    0.0000 C   0  0  0  0  0  0  0  0  0  0  0  0
    2.5542    2.2083    0.0000 C   0  0  0  0  0  0  0  0  0  0  0  0
    3.6167    3.2708    0.0000 O   0  0  0  0  0  0  0  0  0  0  0  0
    2.3625    2.9333    0.0000 C   0  0  0  0  0  0  0  0  0  0  0  0
    5.0667    2.8833    0.0000 C   0  0  0  0  0  0  0  0  0  0  0  0
    4.7292    1.6250    0.0000 C   0  0  0  0  0  0  0  0  0  0  0  0
    7.0792    3.7125    0.0000 C   0  0  0  0  0  0  0  0  0  0  0  0
    8.2042    3.0625    0.0000 C   0  0  0  0  0  0  0  0  0  0  0  0
    1.6375    3.1250    0.0000 C   0  0  0  0  0  0  0  0  0  0  0  0
    7.8292    3.7125    0.0000 C   0  0  0  0  0  0  0  0  0  0  0  0
    1.4417    3.8583    0.0000 F   0  0  0  0  0  0  0  0  0  0  0  0
    5.9542    3.0625    0.0000 O   0  0  0  0  0  0  0  0  0  0  0  0
    8.9542    3.0625    0.0000 O   0  0  0  0  0  0  0  0  0  0  0  0
    1.3000    1.8708    0.0000 C   0  0  0  0  0  0  0  0  0  0  0  0
    2.0250    1.6750    0.0000 C   0  0  0  0  0  0  0  0  0  0  0  0
    1.1042    2.5958    0.0000 C   0  0  0  0  0  0  0  0  0  0  0  0
    5.5792    3.7125    0.0000 C   0  0  0  0  0  0  0  0  0  0  0  0
    9.3292    3.7125    0.0000 C   0  0  0  0  0  0  0  0  0  0  0  0
  2  1  1  0  0  0  0
  3  1  1  0  0  0  0
  4 10  1  0  0  0  0
  5  2  1  0  0  0  0
  6  4  1  0  0  0  0
  7  1  2  0  0  0  0
  8  1  2  0  0  0  0
  9  2  2  0  0  0  0
 10 16  1  0  0  0  0
 11  3  1  0  0  0  0
 12  3  1  0  0  0  0
 13  6  1  0  0  0  0
 14  4  2  0  0  0  0
 15 13  2  0  0  0  0
 16 12  1  0  0  0  0
 17 11  1  0  0  0  0
 18  9  1  0  0  0  0
 19  5  2  0  0  0  0
 20 15  1  0  0  0  0
 21 18  2  0  0  0  0
 22 20  1  0  0  0  0
 23  9  1  0  0  0  0
 24 19  1  0  0  0  0
 25 26  2  0  0  0  0
 26 13  1  0  0  0  0
 27 25  1  0  0  0  0
 28 23  1  0  0  0  0
 29 24  1  0  0  0  0
 17 10  1  0  0  0  0
 21 19  1  0  0  0  0
 20 27  2  0  0  0  0
M  END
>  <ID> (7940181)
7940181

>  <Supplier> (7940181)
ChemBridge

>  <clogP> (7940181)
2.511000000000000e+000

>  <RB> (7940181)
3

>  <tPSA> (7940181)
8.494000000000000e+001

>  <Hacc> (7940181)
6

>  <Hdon> (7940181)
1

>  <LogSw> (7940181)
-4.424000000000000e+000

>  <Group> (7940181)
3

>  <Core> (7940181)
050

$$$$
6046585
  -ISIS-  03310818232D

 25 28  0  0  0  0  0  0  0  0999 V2000
    1.5042   -2.7542    0.0000 C   0  0  3  0  0  0  0  0  0  0  0  0
    1.0292   -2.5000    0.0000 C   0  0  3  0  0  0  0  0  0  0  0  0
    1.0292   -1.9792    0.0000 C   0  0  3  0  0  0  0  0  0  0  0  0
    1.9667   -2.5000    0.0000 C   0  0  3  0  0  0  0  0  0  0  0  0
    1.9500   -1.9542    0.0000 C   0  0  3  0  0  0  0  0  0  0  0  0
    1.4875   -1.6792    0.0000 O   0  0  0  0  0  0  0  0  0  0  0  0
    0.5292   -1.7375    0.0000 C   0  0  0  0  0  0  0  0  0  0  0  0
    2.4667   -1.8000    0.0000 O   0  0  0  0  0  0  0  0  0  0  0  0
    2.4667   -2.6542    0.0000 O   0  0  0  0  0  0  0  0  0  0  0  0
    1.4042   -3.2792    0.0000 O   0  0  0  0  0  0  0  0  0  0  0  0
    0.6500   -2.8542    0.0000 O   0  0  0  0  0  0  0  0  0  0  0  0
    2.7667   -2.2167    0.0000 C   0  0  3  0  0  0  0  0  0  0  0  0
    0.8500   -3.3542    0.0000 C   0  0  3  0  0  0  0  0  0  0  0  0
    0.4875   -1.2000    0.0000 N   0  0  0  0  0  0  0  0  0  0  0  0
    0.0875   -2.0375    0.0000 O   0  0  0  0  0  0  0  0  0  0  0  0
    0.0042   -0.9667    0.0000 C   0  0  0  0  0  0  0  0  0  0  0  0
    3.2667   -2.0375    0.0000 C   0  0  0  0  0  0  0  0  0  0  0  0
    2.9667   -2.7167    0.0000 C   0  0  0  0  0  0  0  0  0  0  0  0
    0.3500   -3.5542    0.0000 C   0  0  0  0  0  0  0  0  0  0  0  0
    0.9500   -3.8792    0.0000 C   0  0  0  0  0  0  0  0  0  0  0  0
   -0.0208   -0.4375    0.0000 C   0  0  0  0  0  0  0  0  0  0  0  0
   -0.4333   -1.2667    0.0000 C   0  0  0  0  0  0  0  0  0  0  0  0
   -0.9208   -1.0292    0.0000 C   0  0  0  0  0  0  0  0  0  0  0  0
   -0.5125   -0.1875    0.0000 C   0  0  0  0  0  0  0  0  0  0  0  0
   -0.9625   -0.5000    0.0000 C   0  0  0  0  0  0  0  0  0  0  0  0
  2  1  1  0  0  0  0
  3  2  1  0  0  0  0
  4  1  1  0  0  0  0
  5  4  1  0  0  0  0
  6  5  1  0  0  0  0
  7  3  1  0  0  0  0
  8  5  1  0  0  0  0
  9  4  1  0  0  0  0
 10  1  1  0  0  0  0
 11  2  1  0  0  0  0
 12  9  1  0  0  0  0
 13 10  1  0  0  0  0
 14  7  1  0  0  0  0
 15  7  2  0  0  0  0
 16 14  1  0  0  0  0
 17 12  1  0  0  0  0
 18 12  1  0  0  0  0
 19 13  1  0  0  0  0
 20 13  1  0  0  0  0
 21 16  2  0  0  0  0
 22 16  1  0  0  0  0
 23 22  2  0  0  0  0
 24 21  1  0  0  0  0
 25 23  1  0  0  0  0
 13 11  1  0  0  0  0
 12  8  1  0  0  0  0
  3  6  1  0  0  0  0
 24 25  2  0  0  0  0
M  END
>  <ID> (6046585)
6046585

>  <Supplier> (6046585)
ChemBridge

>  <clogP> (6046585)
2.150000000000000e+000

>  <RB> (6046585)
2

>  <tPSA> (6046585)
7.525000000000000e+001

>  <Hacc> (6046585)
6

>  <Hdon> (6046585)
1

>  <LogSw> (6046585)
-3.584000000000000e+000

>  <Group> (6046585)
3

$$$$
7963467
  -ISIS-  03310818282D

 26 28  0  0  0  0  0  0  0  0999 V2000
    5.4792    2.7583    0.0000 C   0  0  0  0  0  0  0  0  0  0  0  0
    4.8000    3.0625    0.0000 N   0  0  0  0  0  0  0  0  0  0  0  0
    5.4042    2.0083    0.0000 N   0  0  0  0  0  0  0  0  0  0  0  0
    4.2917    2.5083    0.0000 C   0  0  0  0  0  0  0  0  0  0  0  0
    2.3625    2.0583    0.0000 C   0  0  0  0  0  0  0  0  0  0  0  0
    3.1042    1.9750    0.0000 N   0  0  3  0  0  0  0  0  0  0  0  0
    6.1292    3.1333    0.0000 C   0  0  0  0  0  0  0  0  0  0  0  0
    4.6667    1.8583    0.0000 O   0  0  0  0  0  0  0  0  0  0  0  0
    3.5500    2.5833    0.0000 C   0  0  0  0  0  0  0  0  0  0  0  0
    2.0542    2.7375    0.0000 C   0  0  0  0  0  0  0  0  0  0  0  0
    6.7792    2.7583    0.0000 C   0  0  0  0  0  0  0  0  0  0  0  0
    1.9250    1.4458    0.0000 O   0  0  0  0  0  0  0  0  0  0  0  0
    3.4167    1.2958    0.0000 C   0  0  3  0  0  0  0  0  0  0  0  0
    2.5000    3.3458    0.0000 C   0  0  0  0  0  0  0  0  0  0  0  0
    1.3125    2.8208    0.0000 C   0  0  0  0  0  0  0  0  0  0  0  0
    1.4500    4.1042    0.0000 C   0  0  0  0  0  0  0  0  0  0  0  0
    6.7792    2.0083    0.0000 Cl  0  0  0  0  0  0  0  0  0  0  0  0
    1.0042    3.5083    0.0000 C   0  0  0  0  0  0  0  0  0  0  0  0
    2.1917    4.0250    0.0000 C   0  0  0  0  0  0  0  0  0  0  0  0
    1.1417    4.7917    0.0000 Br  0  0  0  0  0  0  0  0  0  0  0  0
    6.1292    3.8833    0.0000 C   0  0  0  0  0  0  0  0  0  0  0  0
    7.4292    3.1333    0.0000 C   0  0  0  0  0  0  0  0  0  0  0  0
    4.1625    1.2125    0.0000 C   0  0  0  0  0  0  0  0  0  0  0  0
    2.9750    0.6833    0.0000 C   0  0  0  0  0  0  0  0  0  0  0  0
    6.7792    4.2500    0.0000 C   0  0  0  0  0  0  0  0  0  0  0  0
    7.4292    3.8833    0.0000 C   0  0  0  0  0  0  0  0  0  0  0  0
  2  1  1  0  0  0  0
  3  1  2  0  0  0  0
  4  2  2  0  0  0  0
  5  6  1  0  0  0  0
  6  9  1  0  0  0  0
  7  1  1  0  0  0  0
  8  3  1  0  0  0  0
  9  4  1  0  0  0  0
 10  5  1  0  0  0  0
 11  7  2  0  0  0  0
 12  5  2  0  0  0  0
 13  6  1  0  0  0  0
 14 10  1  0  0  0  0
 15 10  2  0  0  0  0
 16 18  2  0  0  0  0
 17 11  1  0  0  0  0
 18 15  1  0  0  0  0
 19 14  2  0  0  0  0
 20 16  1  0  0  0  0
 21  7  1  0  0  0  0
 22 11  1  0  0  0  0
 23 13  1  0  0  0  0
 24 13  1  0  0  0  0
 25 21  2  0  0  0  0
 26 25  1  0  0  0  0
  8  4  1  0  0  0  0
 26 22  2  0  0  0  0
 16 19  1  0  0  0  0
M  END
>  <ID> (7963467)
7963467

>  <Supplier> (7963467)
ChemBridge

>  <clogP> (7963467)
4.489000000000003e+000

>  <RB> (7963467)
4

>  <tPSA> (7963467)
5.923000000000000e+001

>  <Hacc> (7963467)
4

>  <Hdon> (7963467)
0

>  <LogSw> (7963467)
-6.202000000000000e+000

>  <Group> (7963467)
1

>  <Core> (7963467)
204

$$$$
6439791
  -ISIS-  03310818242D

 34 37  0  0  0  0  0  0  0  0999 V2000
    6.0667   -6.7667    0.0000 N   0  0  3  0  0  0  0  0  0  0  0  0
    5.3125   -7.8292    0.0000 C   0  0  0  0  0  0  0  0  0  0  0  0
    4.1125   -7.4167    0.0000 C   0  0  0  0  0  0  0  0  0  0  0  0
    5.3125   -5.7250    0.0000 C   0  0  0  0  0  0  0  0  0  0  0  0
    4.1125   -6.1292    0.0000 C   0  0  0  0  0  0  0  0  0  0  0  0
    2.9792   -9.3792    0.0000 N   0  3  0  0  0  0  0  0  0  0  0  0
    2.9792   -8.0875    0.0000 C   0  0  0  0  0  0  0  0  0  0  0  0
    7.3500   -6.6667    0.0000 C   0  0  0  0  0  0  0  0  0  0  0  0
    9.7750   -4.1667    0.0000 C   0  0  0  0  0  0  0  0  0  0  0  0
   11.0500   -4.0292    0.0000 O   0  0  0  0  0  0  0  0  0  0  0  0
   13.0792   -4.9667    0.0000 C   0  0  0  0  0  0  0  0  0  0  0  0
    7.9125   -5.4917    0.0000 C   0  0  0  0  0  0  0  0  0  0  0  0
    9.2042   -5.3750    0.0000 C   0  0  0  0  0  0  0  0  0  0  0  0
   11.8042   -5.0667    0.0000 C   0  0  3  0  0  0  0  0  0  0  0  0
    5.7667   -9.1167    0.0000 O   0  0  0  0  0  0  0  0  0  0  0  0
    5.7667   -4.4750    0.0000 O   0  0  0  0  0  0  0  0  0  0  0  0
    1.8417  -10.0167    0.0000 O   0  5  0  0  0  0  0  0  0  0  0  0
    4.1125  -10.0167    0.0000 O   0  0  0  0  0  0  0  0  0  0  0  0
   13.8375   -6.0125    0.0000 C   0  0  0  0  0  0  0  0  0  0  0  0
    8.9750   -3.0792    0.0000 O   0  0  0  0  0  0  0  0  0  0  0  0
   13.6417   -3.8000    0.0000 O   0  0  0  0  0  0  0  0  0  0  0  0
   13.3167   -7.1917    0.0000 C   0  0  0  0  0  0  0  0  0  0  0  0
   15.1250   -5.9125    0.0000 C   0  0  0  0  0  0  0  0  0  0  0  0
    2.9792   -5.4917    0.0000 C   0  0  0  0  0  0  0  0  0  0  0  0
   15.8792   -6.9542    0.0000 C   0  0  0  0  0  0  0  0  0  0  0  0
   14.0667   -8.2792    0.0000 C   0  0  0  0  0  0  0  0  0  0  0  0
    8.1042   -7.7042    0.0000 C   0  0  0  0  0  0  0  0  0  0  0  0
   15.3167   -8.1750    0.0000 C   0  0  0  0  0  0  0  0  0  0  0  0
    1.8417   -7.4167    0.0000 C   0  0  0  0  0  0  0  0  0  0  0  0
    9.9542   -6.4375    0.0000 C   0  0  0  0  0  0  0  0  0  0  0  0
    1.8417   -6.1292    0.0000 C   0  0  0  0  0  0  0  0  0  0  0  0
    9.4250   -7.6125    0.0000 C   0  0  0  0  0  0  0  0  0  0  0  0
   11.1500   -6.1875    0.0000 C   0  0  0  0  0  0  0  0  0  0  0  0
   16.0000   -9.2667    0.0000 C   0  0  0  0  0  0  0  0  0  0  0  0
  2  1  1  0  0  0  0
  3  2  1  0  0  0  0
  4  1  1  0  0  0  0
  5  4  1  0  0  0  0
  6  7  1  0  0  0  0
  7  3  1  0  0  0  0
  8  1  1  0  0  0  0
  9 13  1  0  0  0  0
 10  9  1  0  0  0  0
 11 14  1  0  0  0  0
 12  8  2  0  0  0  0
 13 12  1  0  0  0  0
 14 10  1  0  0  0  0
 15  2  2  0  0  0  0
 16  4  2  0  0  0  0
 17  6  1  0  0  0  0
 18  6  2  0  0  0  0
 19 11  1  0  0  0  0
 20  9  2  0  0  0  0
 21 11  2  0  0  0  0
 22 19  1  0  0  0  0
 23 19  2  0  0  0  0
 24  5  1  0  0  0  0
 25 23  1  0  0  0  0
 26 22  2  0  0  0  0
 27  8  1  0  0  0  0
 28 25  2  0  0  0  0
 29  7  2  0  0  0  0
 30 32  1  0  0  0  0
 31 24  2  0  0  0  0
 32 27  2  0  0  0  0
 33 14  1  0  0  0  0
 34 28  1  0  0  0  0
  5  3  2  0  0  0  0
 13 30  2  0  0  0  0
 29 31  1  0  0  0  0
 28 26  1  0  0  0  0
M  CHG  2   6   1  17  -1
M  END
>  <ID> (6439791)
6439791

>  <Supplier> (6439791)
ChemBridge

>  <clogP> (6439791)
4.430000000000002e+000

>  <RB> (6439791)
6

>  <tPSA> (6439791)
1.238900000000000e+002

>  <Hacc> (6439791)
7

>  <Hdon> (6439791)
0

>  <LogSw> (6439791)
-6.715000000000000e+000

>  <Group> (6439791)
1

>  <Core> (6439791)
217

$$$$
7580186
  -ISIS-  03310818262D

 29 33  0  0  0  0  0  0  0  0999 V2000
    5.3417   -1.9125    0.0000 C   0  0  0  0  0  0  0  0  0  0  0  0
    4.6292   -1.5000    0.0000 C   0  0  3  0  0  0  0  0  0  0  0  0
    3.9167   -1.9125    0.0000 C   0  0  0  0  0  0  0  0  0  0  0  0
    5.3417   -2.7417    0.0000 C   0  0  0  0  0  0  0  0  0  0  0  0
    6.0542   -1.5042    0.0000 C   0  0  0  0  0  0  0  0  0  0  0  0
    3.9167   -2.7417    0.0000 C   0  0  0  0  0  0  0  0  0  0  0  0
    4.6292   -3.1500    0.0000 N   0  0  0  0  0  0  0  0  0  0  0  0
    4.6292   -0.6750    0.0000 C   0  0  0  0  0  0  0  0  0  0  0  0
    6.7667   -1.9250    0.0000 N   0  0  3  0  0  0  0  0  0  0  0  0
    3.2042   -1.5042    0.0000 C   0  0  0  0  0  0  0  0  0  0  0  0
    5.3417   -0.2625    0.0000 C   0  0  0  0  0  0  0  0  0  0  0  0
    5.3417    0.5708    0.0000 C   0  0  0  0  0  0  0  0  0  0  0  0
    4.6292    0.9833    0.0000 C   0  0  0  0  0  0  0  0  0  0  0  0
    5.9542    1.1208    0.0000 O   0  0  0  0  0  0  0  0  0  0  0  0
    6.0667   -0.6792    0.0000 O   0  0  0  0  0  0  0  0  0  0  0  0
    4.7917    1.7875    0.0000 O   0  0  0  0  0  0  0  0  0  0  0  0
    3.9167   -0.2625    0.0000 C   0  0  0  0  0  0  0  0  0  0  0  0
    5.6167    1.8708    0.0000 C   0  0  0  0  0  0  0  0  0  0  0  0
    3.2042   -0.6792    0.0000 O   0  0  0  0  0  0  0  0  0  0  0  0
    3.9167    0.5708    0.0000 C   0  0  0  0  0  0  0  0  0  0  0  0
    8.1917   -2.7625    0.0000 O   0  0  0  0  0  0  0  0  0  0  0  0
    3.2042   -3.1625    0.0000 C   0  0  0  0  0  0  0  0  0  0  0  0
    6.0542   -3.1542    0.0000 C   0  0  0  0  0  0  0  0  0  0  0  0
    7.4792   -1.5125    0.0000 C   0  0  0  0  0  0  0  0  0  0  0  0
    6.7625   -2.7500    0.0000 C   0  0  0  0  0  0  0  0  0  0  0  0
    2.4917   -1.9125    0.0000 C   0  0  0  0  0  0  0  0  0  0  0  0
    2.4917   -2.7417    0.0000 C   0  0  0  0  0  0  0  0  0  0  0  0
    7.4667   -3.1667    0.0000 C   0  0  0  0  0  0  0  0  0  0  0  0
    8.1917   -1.9292    0.0000 C   0  0  0  0  0  0  0  0  0  0  0  0
  2  1  1  0  0  0  0
  3  2  1  0  0  0  0
  4  1  2  0  0  0  0
  5  1  1  0  0  0  0
  6  7  1  0  0  0  0
  7  4  1  0  0  0  0
  8  2  1  0  0  0  0
  9  5  1  0  0  0  0
 10  3  1  0  0  0  0
 11  8  2  0  0  0  0
 12 11  1  0  0  0  0
 13 20  1  0  0  0  0
 14 12  1  0  0  0  0
 15  5  2  0  0  0  0
 16 13  1  0  0  0  0
 17  8  1  0  0  0  0
 18 14  1  0  0  0  0
 19 10  2  0  0  0  0
 20 17  2  0  0  0  0
 21 28  1  0  0  0  0
 22  6  1  0  0  0  0
 23  4  1  0  0  0  0
 24  9  1  0  0  0  0
 25  9  1  0  0  0  0
 26 10  1  0  0  0  0
 27 22  1  0  0  0  0
 28 25  1  0  0  0  0
 29 24  1  0  0  0  0
  6  3  2  0  0  0  0
 21 29  1  0  0  0  0
 27 26  1  0  0  0  0
 12 13  2  0  0  0  0
 16 18  1  0  0  0  0
M  END
>  <ID> (7580186)
7580186

>  <Supplier> (7580186)
ChemBridge

>  <clogP> (7580186)
1.713000000000000e+000

>  <RB> (7580186)
2

>  <tPSA> (7580186)
7.709999999999999e+001

>  <Hacc> (7580186)
5

>  <Hdon> (7580186)
1

>  <LogSw> (7580186)
-3.420000000000000e+000

>  <Group> (7580186)
3

>  <Core> (7580186)
086

$$$$
6991093
  -ISIS-  03310818252D

 24 25  0  0  0  0  0  0  0  0999 V2000
   -1.1708    0.0500    0.0000 C   0  0  0  0  0  0  0  0  0  0  0  0
   -0.6708    0.3500    0.0000 C   0  0  0  0  0  0  0  0  0  0  0  0
   -0.6708    0.9500    0.0000 C   0  0  0  0  0  0  0  0  0  0  0  0
   -1.1708   -0.5500    0.0000 C   0  0  0  0  0  0  0  0  0  0  0  0
   -1.6958    0.3500    0.0000 C   0  0  0  0  0  0  0  0  0  0  0  0
   -2.2125    0.6708    0.0000 N   0  0  0  0  0  0  0  0  0  0  0  0
   -0.1333    1.8500    0.0000 C   0  0  0  0  0  0  0  0  0  0  0  0
   -0.1500    1.2500    0.0000 C   0  0  0  0  0  0  0  0  0  0  0  0
   -1.1708    1.2500    0.0000 C   0  0  0  0  0  0  0  0  0  0  0  0
   -1.1708    1.8500    0.0000 C   0  0  0  0  0  0  0  0  0  0  0  0
   -0.6708    2.1500    0.0000 C   0  0  0  0  0  0  0  0  0  0  0  0
   -1.6958   -0.8500    0.0000 S   0  0  0  0  0  0  0  0  0  0  0  0
    0.4042    2.1500    0.0000 C   0  0  0  0  0  0  0  0  0  0  0  0
    0.9292    1.8500    0.0000 O   0  0  0  0  0  0  0  0  0  0  0  0
   -0.6708   -0.8500    0.0000 N   0  0  0  0  0  0  0  0  0  0  0  0
    1.4292    2.1333    0.0000 C   0  0  0  0  0  0  0  0  0  0  0  0
    2.4667    2.7333    0.0000 C   0  0  0  0  0  0  0  0  0  0  0  0
    3.0042    3.0333    0.0000 Br  0  0  0  0  0  0  0  0  0  0  0  0
    1.4292    2.7333    0.0000 C   0  0  0  0  0  0  0  0  0  0  0  0
    1.9500    1.8333    0.0000 C   0  0  0  0  0  0  0  0  0  0  0  0
    1.9500    3.0333    0.0000 C   0  0  0  0  0  0  0  0  0  0  0  0
    2.4667    2.1333    0.0000 C   0  0  0  0  0  0  0  0  0  0  0  0
   -1.7125    0.9500    0.0000 C   0  0  0  0  0  0  0  0  0  0  0  0
   -0.6958    2.7500    0.0000 C   0  0  0  0  0  0  0  0  0  0  0  0
  2  1  2  0  0  0  0
  3  2  1  0  0  0  0
  4  1  1  0  0  0  0
  5  1  1  0  0  0  0
  6  5  3  0  0  0  0
  7  8  1  0  0  0  0
  8  3  2  0  0  0  0
  9  3  1  0  0  0  0
 10  9  2  0  0  0  0
 11 10  1  0  0  0  0
 12  4  2  0  0  0  0
 13  7  1  0  0  0  0
 14 13  1  0  0  0  0
 15  4  1  0  0  0  0
 16 14  1  0  0  0  0
 17 22  1  0  0  0  0
 18 17  1  0  0  0  0
 19 16  2  0  0  0  0
 20 16  1  0  0  0  0
 21 19  1  0  0  0  0
 22 20  2  0  0  0  0
 23  9  1  0  0  0  0
 24 11  1  0  0  0  0
  7 11  2  0  0  0  0
 17 21  2  0  0  0  0
M  END
>  <ID> (6991093)
6991093

>  <Supplier> (6991093)
ChemBridge

>  <clogP> (6991093)
4.950000000000000e+000

>  <RB> (6991093)
5

>  <tPSA> (6991093)
5.904000000000000e+001

>  <Hacc> (6991093)
2

>  <Hdon> (6991093)
1

>  <LogSw> (6991093)
-6.617999999999998e+000

>  <Group> (6991093)
1

>  <Core> (6991093)
109

$$$$
5424385
  -ISIS-  03310818222D

 25 25  0  0  0  0  0  0  0  0999 V2000
    2.1292    3.0000    0.0000 C   0  0  0  0  0  0  0  0  0  0  0  0
   -0.5958    2.2125    0.0000 C   0  0  0  0  0  0  0  0  0  0  0  0
    2.8042    3.4000    0.0000 N   0  0  3  0  0  0  0  0  0  0  0  0
    0.0875    1.8125    0.0000 C   0  0  0  0  0  0  0  0  0  0  0  0
    2.1292    2.2125    0.0000 C   0  0  0  0  0  0  0  0  0  0  0  0
    1.4500    3.3958    0.0000 C   0  0  0  0  0  0  0  0  0  0  0  0
    0.7667    2.2125    0.0000 C   0  0  0  0  0  0  0  0  0  0  0  0
   -2.6333    1.0125    0.0000 C   0  0  0  0  0  0  0  0  0  0  0  0
   -2.6458    3.3833    0.0000 C   0  0  0  0  0  0  0  0  0  0  0  0
   -1.9500    2.2083    0.0000 N   0  0  3  0  0  0  0  0  0  0  0  0
   -3.9583    1.0000    0.0000 N   0  0  3  0  0  0  0  0  0  0  0  0
   -4.0000    3.3458    0.0000 N   0  0  3  0  0  0  0  0  0  0  0  0
    0.7667    3.0000    0.0000 C   0  0  0  0  0  0  0  0  0  0  0  0
    1.4500    1.8125    0.0000 C   0  0  0  0  0  0  0  0  0  0  0  0
   -1.2708    1.8125    0.0000 C   0  0  0  0  0  0  0  0  0  0  0  0
   -3.2958    0.6208    0.0000 C   0  0  0  0  0  0  0  0  0  0  0  0
   -3.3208    2.9708    0.0000 C   0  0  0  0  0  0  0  0  0  0  0  0
   -1.9500    2.9708    0.0000 C   0  0  0  0  0  0  0  0  0  0  0  0
   -2.6333    1.7958    0.0000 C   0  0  0  0  0  0  0  0  0  0  0  0
    3.4792    3.0208    0.0000 C   0  0  0  0  0  0  0  0  0  0  0  0
    2.8042    4.1792    0.0000 C   0  0  0  0  0  0  0  0  0  0  0  0
   -4.6125    0.6208    0.0000 C   0  0  0  0  0  0  0  0  0  0  0  0
   -4.6583    2.9458    0.0000 C   0  0  0  0  0  0  0  0  0  0  0  0
   -4.0208    4.0917    0.0000 C   0  0  0  0  0  0  0  0  0  0  0  0
   -3.9583    1.7625    0.0000 C   0  0  0  0  0  0  0  0  0  0  0  0
  2  4  2  0  0  0  0
  3  1  1  0  0  0  0
  4  7  1  0  0  0  0
  5  1  1  0  0  0  0
  6  1  2  0  0  0  0
  7 13  2  0  0  0  0
  8 19  1  0  0  0  0
  9 18  1  0  0  0  0
 10 15  1  0  0  0  0
 11 16  1  0  0  0  0
 12 17  1  0  0  0  0
 13  6  1  0  0  0  0
 14  5  2  0  0  0  0
 15  2  1  0  0  0  0
 16  8  1  0  0  0  0
 17  9  1  0  0  0  0
 18 10  1  0  0  0  0
 19 10  1  0  0  0  0
 20  3  1  0  0  0  0
 21  3  1  0  0  0  0
 22 11  1  0  0  0  0
 23 12  1  0  0  0  0
 24 12  1  0  0  0  0
 25 11  1  0  0  0  0
 14  7  1  0  0  0  0
M  END
>  <ID> (5424385)
5424385

>  <Supplier> (5424385)
ChemBridge

>  <clogP> (5424385)
4.150000000000000e+000

>  <RB> (5424385)
9

>  <tPSA> (5424385)
1.296000000000000e+001

>  <Hacc> (5424385)
3

>  <Hdon> (5424385)
0

>  <LogSw> (5424385)
-4.263000000000000e+000

>  <Group> (5424385)
1

$$$$
5737820
  -ISIS-  03310818222D

 18 19  0  0  0  0  0  0  0  0999 V2000
   -1.2833   -0.0875    0.0000 C   0  0  0  0  0  0  0  0  0  0  0  0
   -1.2833   -1.0292    0.0000 C   0  0  0  0  0  0  0  0  0  0  0  0
   -2.0958    0.3958    0.0000 C   0  0  0  0  0  0  0  0  0  0  0  0
   -2.0958   -1.5000    0.0000 C   0  0  0  0  0  0  0  0  0  0  0  0
   -2.8958   -0.0875    0.0000 C   0  0  0  0  0  0  0  0  0  0  0  0
    2.4292   -0.0667    0.0000 N   0  0  3  0  0  0  0  0  0  0  0  0
   -2.8958   -1.0292    0.0000 C   0  0  0  0  0  0  0  0  0  0  0  0
    4.3292   -0.8167    0.0000 O   0  0  0  0  0  0  0  0  0  0  0  0
   -0.7000   -1.3292    0.0000 Cl  0  0  0  0  0  0  0  0  0  0  0  0
   -2.1125    0.8625    0.0000 Cl  0  0  0  0  0  0  0  0  0  0  0  0
   -0.3708    0.3208    0.0000 O   0  0  0  0  0  0  0  0  0  0  0  0
   -3.4333   -1.2500    0.0000 Cl  0  0  0  0  0  0  0  0  0  0  0  0
    1.6000    0.2833    0.0000 C   0  0  0  0  0  0  0  0  0  0  0  0
    0.6792   -0.2292    0.0000 C   0  0  0  0  0  0  0  0  0  0  0  0
    3.1667    0.4708    0.0000 C   0  0  0  0  0  0  0  0  0  0  0  0
    2.5375   -0.9667    0.0000 C   0  0  0  0  0  0  0  0  0  0  0  0
    3.3792   -1.3375    0.0000 C   0  0  0  0  0  0  0  0  0  0  0  0
    4.0042    0.1000    0.0000 C   0  0  0  0  0  0  0  0  0  0  0  0
  2  1  2  0  0  0  0
  3  1  1  0  0  0  0
  4  2  1  0  0  0  0
  5  3  2  0  0  0  0
  6 13  1  0  0  0  0
  7  5  1  0  0  0  0
  8 17  1  0  0  0  0
  9  2  1  0  0  0  0
 10  3  1  0  0  0  0
 11  1  1  0  0  0  0
 12  7  1  0  0  0  0
 13 14  1  0  0  0  0
 14 11  1  0  0  0  0
 15  6  1  0  0  0  0
 16  6  1  0  0  0  0
 17 16  1  0  0  0  0
 18 15  1  0  0  0  0
  7  4  2  0  0  0  0
  8 18  1  0  0  0  0
M  END
>  <ID> (5737820)
5737820

>  <Supplier> (5737820)
ChemBridge

>  <clogP> (5737820)
4.060000000000000e+000

>  <RB> (5737820)
4

>  <tPSA> (5737820)
2.170000000000000e+001

>  <Hacc> (5737820)
3

>  <Hdon> (5737820)
0

>  <LogSw> (5737820)
-3.924000000000000e+000

>  <Group> (5737820)
3

>  <Core> (5737820)
318

$$$$
9142720
  -ISIS-  03310818292D

 20 21  0  0  0  0  0  0  0  0999 V2000
    1.8167    1.3458    0.0000 C   0  0  0  0  0  0  0  0  0  0  0  0
    1.1750    1.7208    0.0000 N   0  0  0  0  0  0  0  0  0  0  0  0
    2.4667    1.7208    0.0000 C   0  0  0  0  0  0  0  0  0  0  0  0
    3.7667    1.7208    0.0000 C   0  0  0  0  0  0  0  0  0  0  0  0
    3.1167    1.3458    0.0000 C   0  0  0  0  0  0  0  0  0  0  0  0
   -0.7750    1.3458    0.0000 C   0  0  0  0  0  0  0  0  0  0  0  0
   -1.4250    1.7208    0.0000 C   0  0  0  0  0  0  0  0  0  0  0  0
    3.7667    2.4708    0.0000 C   0  0  0  0  0  0  0  0  0  0  0  0
    0.5250    1.3458    0.0000 C   0  0  0  0  0  0  0  0  0  0  0  0
    1.8167    0.5958    0.0000 O   0  0  0  0  0  0  0  0  0  0  0  0
   -0.1250    1.7208    0.0000 C   0  0  0  0  0  0  0  0  0  0  0  0
    2.4667    2.4708    0.0000 C   0  0  0  0  0  0  0  0  0  0  0  0
   -2.0750    1.3458    0.0000 O   0  0  0  0  0  0  0  0  0  0  0  0
    3.1167    2.8458    0.0000 C   0  0  0  0  0  0  0  0  0  0  0  0
    4.4167    1.3458    0.0000 F   0  0  0  0  0  0  0  0  0  0  0  0
    4.4167    2.8458    0.0000 F   0  0  0  0  0  0  0  0  0  0  0  0
   -0.7750    0.5958    0.0000 C   0  0  0  0  0  0  0  0  0  0  0  0
   -0.1250    0.2208    0.0000 C   0  0  0  0  0  0  0  0  0  0  0  0
    0.5250    0.5958    0.0000 C   0  0  0  0  0  0  0  0  0  0  0  0
   -1.4250    2.4708    0.0000 C   0  0  0  0  0  0  0  0  0  0  0  0
  2  1  1  0  0  0  0
  3  1  1  0  0  0  0
  4  5  1  0  0  0  0
  5  3  2  0  0  0  0
  6 11  1  0  0  0  0
  7  6  1  0  0  0  0
  8 14  1  0  0  0  0
  9  2  1  0  0  0  0
 10  1  2  0  0  0  0
 11  9  2  0  0  0  0
 12  3  1  0  0  0  0
 13  7  2  0  0  0  0
 14 12  2  0  0  0  0
 15  4  1  0  0  0  0
 16  8  1  0  0  0  0
 17 18  1  0  0  0  0
 18 19  2  0  0  0  0
 19  9  1  0  0  0  0
 20  7  1  0  0  0  0
  8  4  2  0  0  0  0
 17  6  2  0  0  0  0
M  END
>  <ID> (9142720)
9142720

>  <Supplier> (9142720)
ChemBridge

>  <clogP> (9142720)
2.869000000000000e+000

>  <RB> (9142720)
3

>  <tPSA> (9142720)
4.616999999999997e+001

>  <Hacc> (9142720)
2

>  <Hdon> (9142720)
1

>  <LogSw> (9142720)
-3.658000000000000e+000

>  <Group> (9142720)
2

$$$$
7250319
  -ISIS-  03310818262D

 22 25  0  0  0  0  0  0  0  0999 V2000
   -0.0833    0.6125    0.0000 N   0  0  3  0  0  0  0  0  0  0  0  0
    0.3167    1.3125    0.0000 C   0  0  0  0  0  0  0  0  0  0  0  0
   -0.0833    1.5333    0.0000 C   0  0  0  0  0  0  0  0  0  0  0  0
   -0.1833    0.1500    0.0000 C   0  0  0  0  0  0  0  0  0  0  0  0
    0.3167    0.8333    0.0000 C   0  0  3  0  0  0  0  0  0  0  0  0
   -0.4833    0.8333    0.0000 C   0  0  0  0  0  0  0  0  0  0  0  0
   -0.8833    0.6125    0.0000 C   0  0  0  0  0  0  0  0  0  0  0  0
   -0.4833    1.3125    0.0000 C   0  0  0  0  0  0  0  0  0  0  0  0
   -0.7833    0.1500    0.0000 C   0  0  0  0  0  0  0  0  0  0  0  0
    0.6542    1.6125    0.0000 S   0  0  0  0  0  0  0  0  0  0  0  0
    0.0167    1.9958    0.0000 C   0  0  0  0  0  0  0  0  0  0  0  0
    0.5000    2.0333    0.0000 S   0  0  0  0  0  0  0  0  0  0  0  0
   -1.2833    0.8333    0.0000 C   0  0  0  0  0  0  0  0  0  0  0  0
    0.1542   -0.1667    0.0000 O   0  0  0  0  0  0  0  0  0  0  0  0
   -0.8833    1.5333    0.0000 C   0  0  0  0  0  0  0  0  0  0  0  0
   -0.3000    2.3500    0.0000 S   0  0  0  0  0  0  0  0  0  0  0  0
   -1.1208   -0.1667    0.0000 O   0  0  0  0  0  0  0  0  0  0  0  0
   -1.2833    1.3125    0.0000 C   0  0  0  0  0  0  0  0  0  0  0  0
    0.7542    0.6958    0.0000 C   0  0  0  0  0  0  0  0  0  0  0  0
    0.7542    0.9958    0.0000 C   0  0  0  0  0  0  0  0  0  0  0  0
   -1.7333    1.4833    0.0000 O   0  0  0  0  0  0  0  0  0  0  0  0
   -2.1125    1.1708    0.0000 C   0  0  0  0  0  0  0  0  0  0  0  0
  2  5  1  0  0  0  0
  3  8  1  0  0  0  0
  4  1  1  0  0  0  0
  5  1  1  0  0  0  0
  6  1  1  0  0  0  0
  7  6  1  0  0  0  0
  8  6  2  0  0  0  0
  9  4  1  0  0  0  0
 10  2  1  0  0  0  0
 11  3  1  0  0  0  0
 12 10  1  0  0  0  0
 13  7  2  0  0  0  0
 14  4  2  0  0  0  0
 15  8  1  0  0  0  0
 16 11  2  0  0  0  0
 17  9  2  0  0  0  0
 18 15  2  0  0  0  0
 19  5  1  0  0  0  0
 20  5  1  0  0  0  0
 21 18  1  0  0  0  0
 22 21  1  0  0  0  0
  7  9  1  0  0  0  0
  2  3  2  0  0  0  0
 13 18  1  0  0  0  0
 12 11  1  0  0  0  0
M  END
>  <ID> (7250319)
7250319

>  <Supplier> (7250319)
ChemBridge

>  <clogP> (7250319)
3.100000000000000e+000

>  <RB> (7250319)
0

>  <tPSA> (7250319)
4.661000000000000e+001

>  <Hacc> (7250319)
3

>  <Hdon> (7250319)
0

>  <LogSw> (7250319)
-4.395000000000000e+000

>  <Group> (7250319)
1

>  <Core> (7250319)
184

$$$$
6844598
  -ISIS-  03310818242D

 17 18  0  0  0  0  0  0  0  0999 V2000
    7.2750    3.5000    0.0000 C   0  0  0  0  0  0  0  0  0  0  0  0
    6.0625    2.8000    0.0000 C   0  0  0  0  0  0  0  0  0  0  0  0
    8.4875    4.1917    0.0000 C   0  0  3  0  0  0  0  0  0  0  0  0
    8.9542    2.8958    0.0000 O   0  0  0  0  0  0  0  0  0  0  0  0
    4.8500    2.1000    0.0000 C   0  0  0  0  0  0  0  0  0  0  0  0
    2.4250    2.1000    0.0000 C   0  0  0  0  0  0  0  0  0  0  0  0
    3.6375    2.8000    0.0000 O   0  0  0  0  0  0  0  0  0  0  0  0
    7.6000    5.2667    0.0000 C   0  0  0  0  0  0  0  0  0  0  0  0
    9.8875    4.4292    0.0000 C   0  0  0  0  0  0  0  0  0  0  0  0
    2.4250    0.7000    0.0000 C   0  0  0  0  0  0  0  0  0  0  0  0
    1.2125    2.8000    0.0000 C   0  0  0  0  0  0  0  0  0  0  0  0
   10.3542    5.7292    0.0000 C   0  0  0  0  0  0  0  0  0  0  0  0
    8.0667    6.5750    0.0000 C   0  0  0  0  0  0  0  0  0  0  0  0
    0.0000    2.1000    0.0000 C   0  0  0  0  0  0  0  0  0  0  0  0
    1.2125    0.0000    0.0000 C   0  0  0  0  0  0  0  0  0  0  0  0
    9.4667    6.8042    0.0000 C   0  0  0  0  0  0  0  0  0  0  0  0
    0.0000    0.7000    0.0000 C   0  0  0  0  0  0  0  0  0  0  0  0
  2  1  3  0  0  0  0
  3  1  1  0  0  0  0
  4  3  1  0  0  0  0
  5  2  1  0  0  0  0
  6  7  1  0  0  0  0
  7  5  1  0  0  0  0
  8  3  1  0  0  0  0
  9  3  1  0  0  0  0
 10  6  2  0  0  0  0
 11  6  1  0  0  0  0
 12  9  1  0  0  0  0
 13  8  1  0  0  0  0
 14 11  2  0  0  0  0
 15 10  1  0  0  0  0
 16 12  1  0  0  0  0
 17 14  1  0  0  0  0
 16 13  1  0  0  0  0
 15 17  2  0  0  0  0
M  END
>  <ID> (6844598)
6844598

>  <Supplier> (6844598)
ChemBridge

>  <clogP> (6844598)
4.119999999999997e+000

>  <RB> (6844598)
4

>  <tPSA> (6844598)
2.946000000000000e+001

>  <Hacc> (6844598)
2

>  <Hdon> (6844598)
1

>  <LogSw> (6844598)
-3.889000000000000e+000

>  <Group> (6844598)
3

$$$$
9129347
  -ISIS-  03310818292D

 17 18  0  0  0  0  0  0  0  0999 V2000
    2.8625    1.7125    0.0000 C   0  0  0  0  0  0  0  0  0  0  0  0
    3.3042    1.1083    0.0000 N   0  0  0  0  0  0  0  0  0  0  0  0
    3.3042    2.3208    0.0000 N   0  0  0  0  0  0  0  0  0  0  0  0
    4.0167    1.3375    0.0000 C   0  0  0  0  0  0  0  0  0  0  0  0
    2.1125    1.7125    0.0000 C   0  0  0  0  0  0  0  0  0  0  0  0
    4.0167    2.0875    0.0000 O   0  0  0  0  0  0  0  0  0  0  0  0
    1.6667    2.3208    0.0000 S   0  0  0  0  0  0  0  0  0  0  0  0
    5.9167    0.7583    0.0000 C   0  0  0  0  0  0  0  0  0  0  0  0
    5.3042    1.2000    0.0000 N   0  0  0  0  0  0  0  0  0  0  0  0
    1.6667    1.1083    0.0000 C   0  0  0  0  0  0  0  0  0  0  0  0
    0.9542    2.0875    0.0000 C   0  0  0  0  0  0  0  0  0  0  0  0
    0.9542    1.3375    0.0000 C   0  0  0  0  0  0  0  0  0  0  0  0
    5.8375    0.0125    0.0000 O   0  0  0  0  0  0  0  0  0  0  0  0
    4.6250    0.8958    0.0000 C   0  0  0  0  0  0  0  0  0  0  0  0
    6.6000    1.0708    0.0000 C   0  0  0  0  0  0  0  0  0  0  0  0
    7.2042    0.6250    0.0000 C   0  0  0  0  0  0  0  0  0  0  0  0
    7.8917    0.9333    0.0000 C   0  0  0  0  0  0  0  0  0  0  0  0
  2  1  1  0  0  0  0
  3  1  2  0  0  0  0
  4  2  2  0  0  0  0
  5  1  1  0  0  0  0
  6  3  1  0  0  0  0
  7  5  1  0  0  0  0
  8  9  1  0  0  0  0
  9 14  1  0  0  0  0
 10  5  2  0  0  0  0
 11  7  1  0  0  0  0
 12 10  1  0  0  0  0
 13  8  2  0  0  0  0
 14  4  1  0  0  0  0
 15  8  1  0  0  0  0
 16 15  1  0  0  0  0
 17 16  1  0  0  0  0
  6  4  1  0  0  0  0
 11 12  2  0  0  0  0
M  END
>  <ID> (9129347)
9129347

>  <Supplier> (9129347)
ChemBridge

>  <clogP> (9129347)
1.355000000000000e+000

>  <RB> (9129347)
3

>  <tPSA> (9129347)
6.802000000000000e+001

>  <Hacc> (9129347)
4

>  <Hdon> (9129347)
1

>  <LogSw> (9129347)
-2.191000000000000e+000

>  <Group> (9129347)
2

>  <Core> (9129347)
204

$$$$
6844596
  -ISIS-  03310818242D

 31 33  0  0  0  0  0  0  0  0999 V2000
    0.2000    0.5625    0.0000 S   0  0  0  0  0  0  0  0  0  0  0  0
    0.7500    0.9500    0.0000 C   0  0  0  0  0  0  0  0  0  0  0  0
   -0.3708    0.9458    0.0000 C   0  0  0  0  0  0  0  0  0  0  0  0
   -0.1708    1.6333    0.0000 N   0  0  0  0  0  0  0  0  0  0  0  0
    0.5292    1.6333    0.0000 N   0  0  0  0  0  0  0  0  0  0  0  0
    4.6167    0.9708    0.0000 C   0  0  0  0  0  0  0  0  0  0  0  0
   -4.1000    0.1500    0.0000 C   0  0  0  0  0  0  0  0  0  0  0  0
   -3.4500    0.4208    0.0000 C   0  0  0  0  0  0  0  0  0  0  0  0
    3.9167    1.0625    0.0000 C   0  0  0  0  0  0  0  0  0  0  0  0
    2.5875    1.2958    0.0000 C   0  0  0  0  0  0  0  0  0  0  0  0
   -2.1958    0.8958    0.0000 C   0  0  0  0  0  0  0  0  0  0  0  0
    2.8292    0.6500    0.0000 N   0  0  0  0  0  0  0  0  0  0  0  0
   -2.7125    1.3208    0.0000 N   0  0  0  0  0  0  0  0  0  0  0  0
   -1.0125    0.7000    0.0000 S   0  0  0  0  0  0  0  0  0  0  0  0
    1.4500    0.8708    0.0000 S   0  0  0  0  0  0  0  0  0  0  0  0
    3.5167    0.5333    0.0000 C   0  0  0  0  0  0  0  0  0  0  0  0
   -3.3625    1.0958    0.0000 C   0  0  0  0  0  0  0  0  0  0  0  0
    4.8875    0.3500    0.0000 C   0  0  0  0  0  0  0  0  0  0  0  0
   -4.6458    0.5833    0.0000 C   0  0  0  0  0  0  0  0  0  0  0  0
    3.0167    1.8333    0.0000 O   0  0  0  0  0  0  0  0  0  0  0  0
   -2.3208    0.2000    0.0000 O   0  0  0  0  0  0  0  0  0  0  0  0
   -4.5500    1.2625    0.0000 C   0  0  0  0  0  0  0  0  0  0  0  0
    4.4667   -0.2000    0.0000 C   0  0  0  0  0  0  0  0  0  0  0  0
    1.9042    1.4125    0.0000 C   0  0  0  0  0  0  0  0  0  0  0  0
   -1.5458    1.1333    0.0000 C   0  0  0  0  0  0  0  0  0  0  0  0
   -4.2083   -0.5292    0.0000 F   0  0  0  0  0  0  0  0  0  0  0  0
    5.0500    1.5000    0.0000 F   0  0  0  0  0  0  0  0  0  0  0  0
   -3.9208    1.5208    0.0000 C   0  0  0  0  0  0  0  0  0  0  0  0
    3.7875   -0.1167    0.0000 C   0  0  0  0  0  0  0  0  0  0  0  0
   -5.2708    0.3333    0.0000 F   0  0  0  0  0  0  0  0  0  0  0  0
    5.5667    0.2958    0.0000 F   0  0  0  0  0  0  0  0  0  0  0  0
  2  1  1  0  0  0  0
  3  1  1  0  0  0  0
  4  3  2  0  0  0  0
  5  2  2  0  0  0  0
  6  9  2  0  0  0  0
  7  8  2  0  0  0  0
  8 17  1  0  0  0  0
  9 16  1  0  0  0  0
 10 24  1  0  0  0  0
 11 25  1  0  0  0  0
 12 10  1  0  0  0  0
 13 11  1  0  0  0  0
 14  3  1  0  0  0  0
 15  2  1  0  0  0  0
 16 12  1  0  0  0  0
 17 13  1  0  0  0  0
 18 23  2  0  0  0  0
 19 22  2  0  0  0  0
 20 10  2  0  0  0  0
 21 11  2  0  0  0  0
 22 28  1  0  0  0  0
 23 29  1  0  0  0  0
 24 15  1  0  0  0  0
 25 14  1  0  0  0  0
 26  7  1  0  0  0  0
 27  6  1  0  0  0  0
 28 17  2  0  0  0  0
 29 16  2  0  0  0  0
 30 19  1  0  0  0  0
 31 18  1  0  0  0  0
  4  5  1  0  0  0  0
 19  7  1  0  0  0  0
 18  6  1  0  0  0  0
M  END
>  <ID> (6844596)
6844596

>  <Supplier> (6844596)
ChemBridge

>  <clogP> (6844596)
3.110000000000000e+000

>  <RB> (6844596)
8

>  <tPSA> (6844596)
8.398000000000002e+001

>  <Hacc> (6844596)
4

>  <Hdon> (6844596)
2

>  <LogSw> (6844596)
-5.416000000000000e+000

>  <Group> (6844596)
1

>  <Core> (6844596)
248

$$$$
7250312
  -ISIS-  03310818262D

 32 34  0  0  0  0  0  0  0  0999 V2000
    0.2875    1.1125    0.0000 S   0  0  3  0  0  0  0  0  0  0  0  0
   -4.1208    2.1708    0.0000 S   0  0  3  0  0  0  0  0  0  0  0  0
   -0.3333    0.7625    0.0000 N   0  0  0  0  0  0  0  0  0  0  0  0
   -3.5000    1.8208    0.0000 N   0  0  0  0  0  0  0  0  0  0  0  0
    0.9042    1.4625    0.0000 C   0  0  0  0  0  0  0  0  0  0  0  0
   -4.7458    2.5208    0.0000 C   0  0  0  0  0  0  0  0  0  0  0  0
   -0.0625    1.7333    0.0000 O   0  0  0  0  0  0  0  0  0  0  0  0
    0.6375    0.4833    0.0000 O   0  0  0  0  0  0  0  0  0  0  0  0
   -3.7625    2.7958    0.0000 O   0  0  0  0  0  0  0  0  0  0  0  0
   -4.4708    1.5458    0.0000 O   0  0  0  0  0  0  0  0  0  0  0  0
    1.5292    1.1000    0.0000 C   0  0  0  0  0  0  0  0  0  0  0  0
    0.9167    2.1708    0.0000 C   0  0  0  0  0  0  0  0  0  0  0  0
   -5.3625    2.1625    0.0000 C   0  0  0  0  0  0  0  0  0  0  0  0
   -4.7500    3.2333    0.0000 C   0  0  0  0  0  0  0  0  0  0  0  0
   -3.4958    1.1000    0.0000 C   0  0  0  0  0  0  0  0  0  0  0  0
   -0.9500    1.1208    0.0000 C   0  0  0  0  0  0  0  0  0  0  0  0
   -2.1958    1.1208    0.0000 C   0  0  0  0  0  0  0  0  0  0  0  0
    2.1542    2.1625    0.0000 C   0  0  0  0  0  0  0  0  0  0  0  0
   -5.9958    3.2208    0.0000 C   0  0  0  0  0  0  0  0  0  0  0  0
   -2.8333    0.7625    0.0000 C   0  0  0  0  0  0  0  0  0  0  0  0
   -1.5708    0.7625    0.0000 C   0  0  0  0  0  0  0  0  0  0  0  0
    2.1500    1.4500    0.0000 C   0  0  0  0  0  0  0  0  0  0  0  0
    1.5375    2.5208    0.0000 C   0  0  0  0  0  0  0  0  0  0  0  0
   -5.3708    3.5833    0.0000 C   0  0  0  0  0  0  0  0  0  0  0  0
   -5.9833    2.5208    0.0000 C   0  0  0  0  0  0  0  0  0  0  0  0
    2.7792    2.5208    0.0000 O   0  0  0  0  0  0  0  0  0  0  0  0
   -6.6042    3.5708    0.0000 O   0  0  0  0  0  0  0  0  0  0  0  0
   -2.1958   -0.3375    0.0000 C   0  0  0  0  0  0  0  0  0  0  0  0
   -1.5708    0.0458    0.0000 C   0  0  0  0  0  0  0  0  0  0  0  0
   -2.8333    0.0458    0.0000 C   0  0  0  0  0  0  0  0  0  0  0  0
    3.3875    2.1625    0.0000 C   0  0  0  0  0  0  0  0  0  0  0  0
   -6.6167    4.2792    0.0000 C   0  0  0  0  0  0  0  0  0  0  0  0
  2  4  1  0  0  0  0
  3  1  1  0  0  0  0
  4 15  1  0  0  0  0
  5  1  1  0  0  0  0
  6  2  1  0  0  0  0
  7  1  2  0  0  0  0
  8  1  2  0  0  0  0
  9  2  2  0  0  0  0
 10  2  2  0  0  0  0
 11  5  2  0  0  0  0
 12  5  1  0  0  0  0
 13  6  1  0  0  0  0
 14  6  2  0  0  0  0
 15 20  1  0  0  0  0
 16  3  1  0  0  0  0
 17 21  1  0  0  0  0
 18 23  1  0  0  0  0
 19 24  2  0  0  0  0
 20 17  2  0  0  0  0
 21 16  1  0  0  0  0
 22 11  1  0  0  0  0
 23 12  2  0  0  0  0
 24 14  1  0  0  0  0
 25 13  2  0  0  0  0
 26 18  1  0  0  0  0
 27 19  1  0  0  0  0
 28 29  1  0  0  0  0
 29 21  2  0  0  0  0
 30 28  2  0  0  0  0
 31 26  1  0  0  0  0
 32 27  1  0  0  0  0
 18 22  2  0  0  0  0
 30 20  1  0  0  0  0
 25 19  1  0  0  0  0
M  END
>  <ID> (7250312)
7250312

>  <Supplier> (7250312)
ChemBridge

>  <clogP> (7250312)
3.790000000000000e+000

>  <RB> (7250312)
6

>  <tPSA> (7250312)
1.108000000000000e+002

>  <Hacc> (7250312)
8

>  <Hdon> (7250312)
2

>  <LogSw> (7250312)
-5.910000000000000e+000

>  <Group> (7250312)
2

>  <Core> (7250312)
519

$$$$
7250311
  -ISIS-  03310818262D

 36 41  0  0  0  0  0  0  0  0999 V2000
   -1.8000    2.5208    0.0000 C   0  0  0  0  0  0  0  0  0  0  0  0
   -2.4125    2.9583    0.0000 C   0  0  0  0  0  0  0  0  0  0  0  0
   -1.1833    2.9333    0.0000 S   0  0  0  0  0  0  0  0  0  0  0  0
   -2.1500    3.6833    0.0000 C   0  0  0  0  0  0  0  0  0  0  0  0
   -1.8208    1.7708    0.0000 N   0  0  0  0  0  0  0  0  0  0  0  0
   -1.1625    1.3958    0.0000 C   0  0  0  0  0  0  0  0  0  0  0  0
   -1.4000    3.6708    0.0000 C   0  0  0  0  0  0  0  0  0  0  0  0
   -1.1625    0.6333    0.0000 C   0  0  0  0  0  0  0  0  0  0  0  0
   -1.1625   -0.9042    0.0000 N   0  0  0  0  0  0  0  0  0  0  0  0
   -1.8208   -0.5292    0.0000 C   0  0  0  0  0  0  0  0  0  0  0  0
   -3.1208    2.7125    0.0000 C   0  0  0  0  0  0  0  0  0  0  0  0
   -1.8208    0.2500    0.0000 C   0  0  0  0  0  0  0  0  0  0  0  0
   -0.5000    0.2500    0.0000 C   0  0  0  0  0  0  0  0  0  0  0  0
   -0.5000   -0.5292    0.0000 C   0  0  0  0  0  0  0  0  0  0  0  0
   -2.4833   -0.9042    0.0000 C   0  0  0  0  0  0  0  0  0  0  0  0
   -3.7833   -0.9042    0.0000 C   0  0  0  0  0  0  0  0  0  0  0  0
   -3.1208   -0.5292    0.0000 C   0  0  0  0  0  0  0  0  0  0  0  0
   -3.7833   -1.6667    0.0000 C   0  0  0  0  0  0  0  0  0  0  0  0
   -4.5208   -0.6875    0.0000 O   0  0  0  0  0  0  0  0  0  0  0  0
   -4.5208   -1.9000    0.0000 O   0  0  0  0  0  0  0  0  0  0  0  0
   -0.5000    1.7708    0.0000 O   0  0  0  0  0  0  0  0  0  0  0  0
   -4.9458   -1.2875    0.0000 C   0  0  0  0  0  0  0  0  0  0  0  0
   -3.2458    1.9958    0.0000 O   0  0  0  0  0  0  0  0  0  0  0  0
   -2.4833   -1.6667    0.0000 C   0  0  0  0  0  0  0  0  0  0  0  0
   -3.1208   -2.0500    0.0000 C   0  0  0  0  0  0  0  0  0  0  0  0
   -3.6958    3.2083    0.0000 N   0  0  0  0  0  0  0  0  0  0  0  0
   -2.6958    4.1500    0.0000 C   0  0  0  0  0  0  0  0  0  0  0  0
   -0.8458    4.1667    0.0000 C   0  0  0  0  0  0  0  0  0  0  0  0
    0.1375    0.6333    0.0000 C   0  0  0  0  0  0  0  0  0  0  0  0
    0.1375   -0.9042    0.0000 C   0  0  0  0  0  0  0  0  0  0  0  0
   -2.6708    4.9167    0.0000 C   0  0  0  0  0  0  0  0  0  0  0  0
   -0.8333    4.9167    0.0000 C   0  0  0  0  0  0  0  0  0  0  0  0
    0.8000    0.2500    0.0000 C   0  0  0  0  0  0  0  0  0  0  0  0
    0.8000   -0.5292    0.0000 C   0  0  0  0  0  0  0  0  0  0  0  0
   -1.3833    5.4292    0.0000 C   0  0  0  0  0  0  0  0  0  0  0  0
   -2.1333    5.4375    0.0000 C   0  0  0  0  0  0  0  0  0  0  0  0
  2  1  2  0  0  0  0
  3  1  1  0  0  0  0
  4  2  1  0  0  0  0
  5  1  1  0  0  0  0
  6  5  1  0  0  0  0
  7  3  1  0  0  0  0
  8  6  1  0  0  0  0
  9 14  1  0  0  0  0
 10 12  1  0  0  0  0
 11  2  1  0  0  0  0
 12  8  2  0  0  0  0
 13  8  1  0  0  0  0
 14 13  2  0  0  0  0
 15 10  1  0  0  0  0
 16 17  2  0  0  0  0
 17 15  1  0  0  0  0
 18 25  2  0  0  0  0
 19 16  1  0  0  0  0
 20 18  1  0  0  0  0
 21  6  2  0  0  0  0
 22 19  1  0  0  0  0
 23 11  2  0  0  0  0
 24 15  2  0  0  0  0
 25 24  1  0  0  0  0
 26 11  1  0  0  0  0
 27  4  1  0  0  0  0
 28  7  1  0  0  0  0
 29 13  1  0  0  0  0
 30 14  1  0  0  0  0
 31 27  1  0  0  0  0
 32 28  1  0  0  0  0
 33 29  2  0  0  0  0
 34 33  1  0  0  0  0
 35 32  1  0  0  0  0
 36 31  1  0  0  0  0
  7  4  2  0  0  0  0
  9 10  2  0  0  0  0
 35 36  1  0  0  0  0
 34 30  2  0  0  0  0
 16 18  1  0  0  0  0
 22 20  1  0  0  0  0
M  END
>  <ID> (7250311)
7250311

>  <Supplier> (7250311)
ChemBridge

>  <clogP> (7250311)
6.420000000000000e+000

>  <RB> (7250311)
4

>  <tPSA> (7250311)
1.035400000000000e+002

>  <Hacc> (7250311)
5

>  <Hdon> (7250311)
2

>  <LogSw> (7250311)
-8.324000000000000e+000

>  <Group> (7250311)
1

>  <Core> (7250311)
097

$$$$
9106789
  -ISIS-  03310818292D

 19 20  0  0  0  0  0  0  0  0999 V2000
   -0.0333    1.9583    0.0000 C   0  0  0  0  0  0  0  0  0  0  0  0
   -0.6750    1.5750    0.0000 N   0  0  0  0  0  0  0  0  0  0  0  0
   -0.0333    2.7083    0.0000 O   0  0  0  0  0  0  0  0  0  0  0  0
   -2.6625    1.8833    0.0000 O   0  0  0  0  0  0  0  0  0  0  0  0
    0.6167    1.5750    0.0000 C   0  0  0  0  0  0  0  0  0  0  0  0
   -1.3250    1.9583    0.0000 C   0  0  0  0  0  0  0  0  0  0  0  0
    1.9167    1.5750    0.0000 C   0  0  0  0  0  0  0  0  0  0  0  0
   -1.9750    1.5750    0.0000 C   0  0  3  0  0  0  0  0  0  0  0  0
    3.2167    0.8250    0.0000 C   0  0  0  0  0  0  0  0  0  0  0  0
    1.2667    1.9583    0.0000 C   0  0  0  0  0  0  0  0  0  0  0  0
    2.5667    1.9583    0.0000 C   0  0  0  0  0  0  0  0  0  0  0  0
    1.9167    0.8250    0.0000 C   0  0  0  0  0  0  0  0  0  0  0  0
    3.2167    1.5750    0.0000 C   0  0  0  0  0  0  0  0  0  0  0  0
    2.5667    0.4500    0.0000 C   0  0  0  0  0  0  0  0  0  0  0  0
   -3.1625    1.3208    0.0000 C   0  0  0  0  0  0  0  0  0  0  0  0
    3.8667    0.4500    0.0000 C   0  0  0  0  0  0  0  0  0  0  0  0
   -2.0583    0.8333    0.0000 C   0  0  0  0  0  0  0  0  0  0  0  0
    3.8667   -0.3000    0.0000 C   0  0  0  0  0  0  0  0  0  0  0  0
   -2.7875    0.6708    0.0000 C   0  0  0  0  0  0  0  0  0  0  0  0
  2  1  1  0  0  0  0
  3  1  2  0  0  0  0
  4  8  1  0  0  0  0
  5  1  1  0  0  0  0
  6  2  1  0  0  0  0
  7 10  1  0  0  0  0
  8  6  1  0  0  0  0
  9 14  2  0  0  0  0
 10  5  1  0  0  0  0
 11  7  1  0  0  0  0
 12  7  2  0  0  0  0
 13 11  2  0  0  0  0
 14 12  1  0  0  0  0
 15  4  1  0  0  0  0
 16  9  1  0  0  0  0
 17  8  1  0  0  0  0
 18 16  1  0  0  0  0
 19 17  1  0  0  0  0
  9 13  1  0  0  0  0
 19 15  1  0  0  0  0
M  END
>  <ID> (9106789)
9106789

>  <Supplier> (9106789)
ChemBridge

>  <clogP> (9106789)
2.895000000000000e+000

>  <RB> (9106789)
5

>  <tPSA> (9106789)
3.833000000000000e+001

>  <Hacc> (9106789)
2

>  <Hdon> (9106789)
1

>  <LogSw> (9106789)
-3.579000000000000e+000

>  <Group> (9106789)
2

$$$$
6497759
  -ISIS-  03310818242D

 24 26  0  0  0  0  0  0  0  0999 V2000
   -4.2333    1.4958    0.0000 C   0  0  0  0  0  0  0  0  0  0  0  0
   -3.6625    1.8333    0.0000 C   0  0  0  0  0  0  0  0  0  0  0  0
    1.5375    2.0458    0.0000 C   0  0  0  0  0  0  0  0  0  0  0  0
   -4.2333    0.8208    0.0000 C   0  0  0  0  0  0  0  0  0  0  0  0
   -3.6625    0.4833    0.0000 C   0  0  0  0  0  0  0  0  0  0  0  0
   -3.0833    1.4958    0.0000 C   0  0  0  0  0  0  0  0  0  0  0  0
    2.3000    1.6000    0.0000 C   0  0  0  0  0  0  0  0  0  0  0  0
    0.7667    1.6125    0.0000 C   0  0  0  0  0  0  0  0  0  0  0  0
   -3.0833    0.8208    0.0000 C   0  0  0  0  0  0  0  0  0  0  0  0
   -0.8625    1.8958    0.0000 C   0  0  0  0  0  0  0  0  0  0  0  0
   -2.3625    1.8708    0.0000 O   0  0  0  0  0  0  0  0  0  0  0  0
    0.4042    1.8458    0.0000 O   0  0  0  0  0  0  0  0  0  0  0  0
    2.6500    1.8458    0.0000 O   0  0  0  0  0  0  0  0  0  0  0  0
    1.5167    0.2833    0.0000 C   0  0  0  0  0  0  0  0  0  0  0  0
   -4.8625    1.8958    0.0000 C   0  0  0  0  0  0  0  0  0  0  0  0
   -1.6625    1.4458    0.0000 C   0  0  0  0  0  0  0  0  0  0  0  0
   -0.2333    1.5000    0.0000 C   0  0  0  0  0  0  0  0  0  0  0  0
    0.7500    0.7458    0.0000 C   0  0  0  0  0  0  0  0  0  0  0  0
    2.2792    0.7208    0.0000 C   0  0  0  0  0  0  0  0  0  0  0  0
   -4.8625    0.4500    0.0000 C   0  0  0  0  0  0  0  0  0  0  0  0
    3.1375    1.5958    0.0000 C   0  0  0  0  0  0  0  0  0  0  0  0
    3.8000    2.0458    0.0000 C   0  0  0  0  0  0  0  0  0  0  0  0
   -5.4958    1.5333    0.0000 C   0  0  0  0  0  0  0  0  0  0  0  0
   -5.4958    0.8125    0.0000 C   0  0  0  0  0  0  0  0  0  0  0  0
  2  1  2  0  0  0  0
  3  8  1  0  0  0  0
  4  1  1  0  0  0  0
  5  4  2  0  0  0  0
  6  2  1  0  0  0  0
  7  3  2  0  0  0  0
  8 12  1  0  0  0  0
  9  5  1  0  0  0  0
 10 16  1  0  0  0  0
 11  6  1  0  0  0  0
 12 17  1  0  0  0  0
 13  7  1  0  0  0  0
 14 18  1  0  0  0  0
 15  1  1  0  0  0  0
 16 11  1  0  0  0  0
 17 10  1  0  0  0  0
 18  8  2  0  0  0  0
 19 14  2  0  0  0  0
 20  4  1  0  0  0  0
 21 13  1  0  0  0  0
 22 21  1  0  0  0  0
 23 15  2  0  0  0  0
 24 23  1  0  0  0  0
 24 20  2  0  0  0  0
  6  9  2  0  0  0  0
  7 19  1  0  0  0  0
M  END
>  <ID> (6497759)
6497759

>  <Supplier> (6497759)
ChemBridge

>  <clogP> (6497759)
5.990000000000000e+000

>  <RB> (6497759)
6

>  <tPSA> (6497759)
2.769000000000000e+001

>  <Hacc> (6497759)
3

>  <Hdon> (6497759)
0

>  <LogSw> (6497759)
-6.666999999999998e+000

>  <Group> (6497759)
2

>  <Core> (6497759)
107

$$$$
7981972
  -ISIS-  03310818282D

 21 23  0  0  0  0  0  0  0  0999 V2000
    4.2667    1.8708    0.0000 C   0  0  0  0  0  0  0  0  0  0  0  0
    4.9500    1.5708    0.0000 N   0  0  0  0  0  0  0  0  0  0  0  0
    1.0167    2.9958    0.0000 N   0  3  0  0  0  0  0  0  0  0  0  0
    4.3417    2.6208    0.0000 S   0  0  0  0  0  0  0  0  0  0  0  0
    3.6167    1.4958    0.0000 S   0  0  0  0  0  0  0  0  0  0  0  0
    1.6667    2.6208    0.0000 C   0  0  0  0  0  0  0  0  0  0  0  0
    2.3167    1.4958    0.0000 C   0  0  0  0  0  0  0  0  0  0  0  0
    5.4542    2.1208    0.0000 C   0  0  0  0  0  0  0  0  0  0  0  0
    2.9667    1.8708    0.0000 C   0  0  0  0  0  0  0  0  0  0  0  0
    5.0792    2.7708    0.0000 C   0  0  0  0  0  0  0  0  0  0  0  0
    1.6667    1.8708    0.0000 C   0  0  0  0  0  0  0  0  0  0  0  0
    1.0167    3.7458    0.0000 O   0  5  0  0  0  0  0  0  0  0  0  0
    0.3667    2.6208    0.0000 O   0  0  0  0  0  0  0  0  0  0  0  0
    2.3167    2.9958    0.0000 C   0  0  0  0  0  0  0  0  0  0  0  0
    2.9667    2.6208    0.0000 C   0  0  0  0  0  0  0  0  0  0  0  0
    2.3167    0.7458    0.0000 C   0  0  0  0  0  0  0  0  0  0  0  0
    1.6667    0.3708    0.0000 O   0  0  0  0  0  0  0  0  0  0  0  0
    6.2042    2.1208    0.0000 C   0  0  0  0  0  0  0  0  0  0  0  0
    5.4542    3.4208    0.0000 C   0  0  0  0  0  0  0  0  0  0  0  0
    6.5792    2.7708    0.0000 C   0  0  0  0  0  0  0  0  0  0  0  0
    6.2042    3.4208    0.0000 C   0  0  0  0  0  0  0  0  0  0  0  0
  2  1  2  0  0  0  0
  3  6  1  0  0  0  0
  4  1  1  0  0  0  0
  5  1  1  0  0  0  0
  6 14  2  0  0  0  0
  7  9  1  0  0  0  0
  8  2  1  0  0  0  0
  9  5  1  0  0  0  0
 10  4  1  0  0  0  0
 11  7  2  0  0  0  0
 12  3  1  0  0  0  0
 13  3  2  0  0  0  0
 14 15  1  0  0  0  0
 15  9  2  0  0  0  0
 16  7  1  0  0  0  0
 17 16  2  0  0  0  0
 18  8  2  0  0  0  0
 19 10  2  0  0  0  0
 20 18  1  0  0  0  0
 21 19  1  0  0  0  0
  8 10  1  0  0  0  0
 11  6  1  0  0  0  0
 20 21  2  0  0  0  0
M  CHG  2   3   1  12  -1
M  END
>  <ID> (7981972)
7981972

>  <Supplier> (7981972)
ChemBridge

>  <clogP> (7981972)
4.387000000000000e+000

>  <RB> (7981972)
3

>  <tPSA> (7981972)
7.309999999999999e+001

>  <Hacc> (7981972)
4

>  <Hdon> (7981972)
0

>  <LogSw> (7981972)
-5.643999999999998e+000

>  <Group> (7981972)
1

>  <Core> (7981972)
031

$$$$
7123482
  -ISIS-  03310818252D

 25 26  0  0  0  0  0  0  0  0999 V2000
    5.7417   -4.4667    0.0000 S   0  0  3  0  0  0  0  0  0  0  0  0
    5.7417   -3.6417    0.0000 N   0  0  3  0  0  0  0  0  0  0  0  0
   10.7375   -3.2417    0.0000 N   0  3  0  0  0  0  0  0  0  0  0  0
    5.0250   -3.2292    0.0000 C   0  0  0  0  0  0  0  0  0  0  0  0
    6.4542   -3.2292    0.0000 C   0  0  0  0  0  0  0  0  0  0  0  0
    7.1667   -3.6417    0.0000 C   0  0  0  0  0  0  0  0  0  0  0  0
   10.0167   -3.6500    0.0000 C   0  0  0  0  0  0  0  0  0  0  0  0
    9.3042   -3.2292    0.0000 C   0  0  0  0  0  0  0  0  0  0  0  0
    6.3250   -5.0542    0.0000 O   0  0  0  0  0  0  0  0  0  0  0  0
    6.5667   -4.4667    0.0000 O   0  0  0  0  0  0  0  0  0  0  0  0
   11.4500   -3.6542    0.0000 O   0  5  0  0  0  0  0  0  0  0  0  0
    7.8792   -3.2292    0.0000 N   0  0  0  0  0  0  0  0  0  0  0  0
   10.7417   -2.4167    0.0000 O   0  0  0  0  0  0  0  0  0  0  0  0
    5.0292   -2.4042    0.0000 C   0  0  0  0  0  0  0  0  0  0  0  0
    8.5875   -3.6417    0.0000 C   0  0  0  0  0  0  0  0  0  0  0  0
    7.1667   -4.4667    0.0000 O   0  0  0  0  0  0  0  0  0  0  0  0
    5.0250   -4.8792    0.0000 C   0  0  0  0  0  0  0  0  0  0  0  0
    5.7417   -1.9792    0.0000 F   0  0  0  0  0  0  0  0  0  0  0  0
    4.3125   -3.6542    0.0000 C   0  0  0  0  0  0  0  0  0  0  0  0
   10.0125   -4.4792    0.0000 C   0  0  0  0  0  0  0  0  0  0  0  0
    9.3000   -4.8875    0.0000 C   0  0  0  0  0  0  0  0  0  0  0  0
    8.5875   -4.4667    0.0000 C   0  0  0  0  0  0  0  0  0  0  0  0
    4.3167   -1.9917    0.0000 C   0  0  0  0  0  0  0  0  0  0  0  0
    3.5917   -3.2292    0.0000 C   0  0  0  0  0  0  0  0  0  0  0  0
    3.5917   -2.4042    0.0000 C   0  0  0  0  0  0  0  0  0  0  0  0
  2  1  1  0  0  0  0
  3  7  1  0  0  0  0
  4  2  1  0  0  0  0
  5  2  1  0  0  0  0
  6  5  1  0  0  0  0
  7  8  1  0  0  0  0
  8 15  2  0  0  0  0
  9  1  2  0  0  0  0
 10  1  2  0  0  0  0
 11  3  1  0  0  0  0
 12  6  1  0  0  0  0
 13  3  2  0  0  0  0
 14  4  2  0  0  0  0
 15 12  1  0  0  0  0
 16  6  2  0  0  0  0
 17  1  1  0  0  0  0
 18 14  1  0  0  0  0
 19  4  1  0  0  0  0
 20 21  1  0  0  0  0
 21 22  2  0  0  0  0
 22 15  1  0  0  0  0
 23 14  1  0  0  0  0
 24 19  2  0  0  0  0
 25 24  1  0  0  0  0
 23 25  2  0  0  0  0
 20  7  2  0  0  0  0
M  CHG  2   3   1  11  -1
M  END
>  <ID> (7123482)
7123482

>  <Supplier> (7123482)
ChemBridge

>  <clogP> (7123482)
2.400000000000000e+000

>  <RB> (7123482)
4

>  <tPSA> (7123482)
1.096200000000000e+002

>  <Hacc> (7123482)
5

>  <Hdon> (7123482)
1

>  <LogSw> (7123482)
-4.318000000000000e+000

>  <Group> (7123482)
3

>  <Core> (7123482)
084

$$$$
6646560
  -ISIS-  03310818242D

 18 19  0  0  0  0  0  0  0  0999 V2000
   -1.0625    1.0125    0.0000 C   0  0  0  0  0  0  0  0  0  0  0  0
   -2.1958   -0.8792    0.0000 C   0  0  0  0  0  0  0  0  0  0  0  0
   -1.0625   -0.1500    0.0000 S   0  0  0  0  0  0  0  0  0  0  0  0
   -3.3125   -0.1500    0.0000 N   0  0  3  0  0  0  0  0  0  0  0  0
   -3.3125    1.0125    0.0000 C   0  0  0  0  0  0  0  0  0  0  0  0
    0.2292    1.6500    0.0000 C   0  0  0  0  0  0  0  0  0  0  0  0
   -2.1958   -2.3375    0.0000 S   0  0  0  0  0  0  0  0  0  0  0  0
    1.4500    0.8958    0.0000 O   0  0  0  0  0  0  0  0  0  0  0  0
    0.2292    3.1083    0.0000 O   0  0  0  0  0  0  0  0  0  0  0  0
   -4.6208   -0.8667    0.0000 C   0  0  0  0  0  0  0  0  0  0  0  0
   -4.6000    1.6500    0.0000 C   0  0  0  0  0  0  0  0  0  0  0  0
    1.4500   -0.4167    0.0000 C   0  0  0  0  0  0  0  0  0  0  0  0
    2.6875   -1.1375    0.0000 C   0  0  0  0  0  0  0  0  0  0  0  0
    2.6875   -2.6000    0.0000 C   0  0  0  0  0  0  0  0  0  0  0  0
    3.9292   -0.4292    0.0000 C   0  0  0  0  0  0  0  0  0  0  0  0
    5.2375   -1.1042    0.0000 C   0  0  0  0  0  0  0  0  0  0  0  0
    3.9792   -3.2875    0.0000 C   0  0  0  0  0  0  0  0  0  0  0  0
    5.2375   -2.5542    0.0000 C   0  0  0  0  0  0  0  0  0  0  0  0
  2  3  1  0  0  0  0
  3  1  1  0  0  0  0
  4  5  1  0  0  0  0
  5  1  2  0  0  0  0
  6  1  1  0  0  0  0
  7  2  2  0  0  0  0
  8  6  1  0  0  0  0
  9  6  2  0  0  0  0
 10  4  1  0  0  0  0
 11  5  1  0  0  0  0
 12  8  1  0  0  0  0
 13 12  1  0  0  0  0
 14 13  2  0  0  0  0
 15 13  1  0  0  0  0
 16 15  2  0  0  0  0
 17 14  1  0  0  0  0
 18 16  1  0  0  0  0
  4  2  1  0  0  0  0
 17 18  2  0  0  0  0
M  END
>  <ID> (6646560)
6646560

>  <Supplier> (6646560)
ChemBridge

>  <clogP> (6646560)
3.780000000000000e+000

>  <RB> (6646560)
4

>  <tPSA> (6646560)
3.123000000000000e+001

>  <Hacc> (6646560)
2

>  <Hdon> (6646560)
0

>  <LogSw> (6646560)
-4.466000000000000e+000

>  <Group> (6646560)
1

$$$$
9116942
  -ISIS-  03310818292D

 19 19  0  0  0  0  0  0  0  0999 V2000
    6.1792    1.2625    0.0000 C   0  0  0  0  0  0  0  0  0  0  0  0
    5.5292    0.8875    0.0000 C   0  0  0  0  0  0  0  0  0  0  0  0
    6.1792    2.0208    0.0000 O   0  0  0  0  0  0  0  0  0  0  0  0
    6.8292    0.8875    0.0000 N   0  0  0  0  0  0  0  0  0  0  0  0
    4.8792    1.2625    0.0000 C   0  0  0  0  0  0  0  0  0  0  0  0
    5.5292    0.1375    0.0000 C   0  0  0  0  0  0  0  0  0  0  0  0
    4.2292    0.1375    0.0000 C   0  0  0  0  0  0  0  0  0  0  0  0
    4.8792   -0.2375    0.0000 C   0  0  0  0  0  0  0  0  0  0  0  0
    4.2292    0.8875    0.0000 C   0  0  0  0  0  0  0  0  0  0  0  0
    3.5792   -0.2375    0.0000 O   0  0  0  0  0  0  0  0  0  0  0  0
    1.6292    0.1375    0.0000 O   0  0  0  0  0  0  0  0  0  0  0  0
    7.4792    1.2625    0.0000 C   0  0  0  0  0  0  0  0  0  0  0  0
    2.9292    0.1375    0.0000 C   0  0  0  0  0  0  0  0  0  0  0  0
    2.2792   -0.2375    0.0000 C   0  0  0  0  0  0  0  0  0  0  0  0
    0.9875   -0.2375    0.0000 C   0  0  0  0  0  0  0  0  0  0  0  0
    8.1292    0.8875    0.0000 C   0  0  0  0  0  0  0  0  0  0  0  0
    8.7792    1.2625    0.0000 C   0  0  0  0  0  0  0  0  0  0  0  0
    0.3375    0.1375    0.0000 C   0  0  0  0  0  0  0  0  0  0  0  0
    9.4292    0.8875    0.0000 C   0  0  0  0  0  0  0  0  0  0  0  0
  2  1  1  0  0  0  0
  3  1  2  0  0  0  0
  4  1  1  0  0  0  0
  5  2  2  0  0  0  0
  6  2  1  0  0  0  0
  7  8  1  0  0  0  0
  8  6  2  0  0  0  0
  9  5  1  0  0  0  0
 10  7  1  0  0  0  0
 11 14  1  0  0  0  0
 12  4  1  0  0  0  0
 13 10  1  0  0  0  0
 14 13  1  0  0  0  0
 15 11  1  0  0  0  0
 16 12  1  0  0  0  0
 17 16  1  0  0  0  0
 18 15  1  0  0  0  0
 19 17  1  0  0  0  0
  7  9  2  0  0  0  0
M  END
>  <ID> (9116942)
9116942

>  <Supplier> (9116942)
ChemBridge

>  <clogP> (9116942)
2.928000000000000e+000

>  <RB> (9116942)
5

>  <tPSA> (9116942)
4.756000000000000e+001

>  <Hacc> (9116942)
3

>  <Hdon> (9116942)
1

>  <LogSw> (9116942)
-3.676000000000000e+000

>  <Group> (9116942)
2

$$$$
6039960
  -ISIS-  03310818232D

 29 32  0  0  0  0  0  0  0  0999 V2000
   -2.7958    0.9208    0.0000 C   0  0  0  0  0  0  0  0  0  0  0  0
   -3.2333    1.5125    0.0000 N   0  0  0  0  0  0  0  0  0  0  0  0
   -3.2333    0.2833    0.0000 N   0  0  0  0  0  0  0  0  0  0  0  0
   -3.9458    1.2833    0.0000 C   0  0  0  0  0  0  0  0  0  0  0  0
   -3.9458    0.5208    0.0000 C   0  0  0  0  0  0  0  0  0  0  0  0
   -0.8708    0.3208    0.0000 C   0  0  0  0  0  0  0  0  0  0  0  0
   -2.0333    0.9500    0.0000 S   0  0  0  0  0  0  0  0  0  0  0  0
    2.5667   -0.3500    0.0000 C   0  0  0  0  0  0  0  0  0  0  0  0
    2.9542   -1.0042    0.0000 C   0  0  0  0  0  0  0  0  0  0  0  0
   -0.4958   -0.3500    0.0000 N   0  0  0  0  0  0  0  0  0  0  0  0
   -4.5958    1.6625    0.0000 C   0  0  0  0  0  0  0  0  0  0  0  0
   -0.5125    0.9958    0.0000 O   0  0  0  0  0  0  0  0  0  0  0  0
   -4.5958    0.1458    0.0000 C   0  0  0  0  0  0  0  0  0  0  0  0
   -1.6333    0.3000    0.0000 C   0  0  0  0  0  0  0  0  0  0  0  0
    1.8042   -0.3500    0.0000 C   0  0  0  0  0  0  0  0  0  0  0  0
    0.2667   -0.3375    0.0000 C   0  0  0  0  0  0  0  0  0  0  0  0
   -5.2708    1.2833    0.0000 C   0  0  0  0  0  0  0  0  0  0  0  0
    3.7167   -0.9875    0.0000 C   0  0  0  0  0  0  0  0  0  0  0  0
   -5.2708    0.5208    0.0000 C   0  0  0  0  0  0  0  0  0  0  0  0
    1.4292   -1.0042    0.0000 C   0  0  0  0  0  0  0  0  0  0  0  0
    1.4292    0.3000    0.0000 C   0  0  0  0  0  0  0  0  0  0  0  0
    0.6667    0.3208    0.0000 C   0  0  0  0  0  0  0  0  0  0  0  0
    0.6667   -1.0042    0.0000 C   0  0  0  0  0  0  0  0  0  0  0  0
   -5.9125    1.6500    0.0000 C   0  0  0  0  0  0  0  0  0  0  0  0
    4.1000   -1.6542    0.0000 C   0  0  0  0  0  0  0  0  0  0  0  0
    4.1000   -0.3375    0.0000 C   0  0  0  0  0  0  0  0  0  0  0  0
    4.8542   -0.3500    0.0000 C   0  0  0  0  0  0  0  0  0  0  0  0
    4.8542   -1.6542    0.0000 C   0  0  0  0  0  0  0  0  0  0  0  0
    5.2375   -1.0042    0.0000 C   0  0  0  0  0  0  0  0  0  0  0  0
  2  1  2  0  0  0  0
  3  1  1  0  0  0  0
  4  2  1  0  0  0  0
  5  3  1  0  0  0  0
  6 14  1  0  0  0  0
  7  1  1  0  0  0  0
  8 15  1  0  0  0  0
  9  8  2  0  0  0  0
 10  6  1  0  0  0  0
 11  4  1  0  0  0  0
 12  6  2  0  0  0  0
 13  5  1  0  0  0  0
 14  7  1  0  0  0  0
 15 20  1  0  0  0  0
 16 10  1  0  0  0  0
 17 11  2  0  0  0  0
 18  9  1  0  0  0  0
 19 13  2  0  0  0  0
 20 23  2  0  0  0  0
 21 22  1  0  0  0  0
 22 16  2  0  0  0  0
 23 16  1  0  0  0  0
 24 17  1  0  0  0  0
 25 18  2  0  0  0  0
 26 18  1  0  0  0  0
 27 26  2  0  0  0  0
 28 25  1  0  0  0  0
 29 27  1  0  0  0  0
  5  4  2  0  0  0  0
 19 17  1  0  0  0  0
 15 21  2  0  0  0  0
 28 29  2  0  0  0  0
M  END
>  <ID> (6039960)
6039960

>  <Supplier> (6039960)
ChemBridge

>  <clogP> (6039960)
5.850000000000000e+000

>  <RB> (6039960)
6

>  <tPSA> (6039960)
5.778000000000000e+001

>  <Hacc> (6039960)
2

>  <Hdon> (6039960)
2

>  <LogSw> (6039960)
-7.108000000000000e+000

>  <Group> (6039960)
1

>  <Core> (6039960)
012

$$$$
6598688
  -ISIS-  03310818242D

 23 24  0  0  0  0  0  0  0  0999 V2000
   11.4917    1.2333    0.0000 N   0  3  0  0  0  0  0  0  0  0  0  0
    4.4750    1.2625    0.0000 C   0  0  0  0  0  0  0  0  0  0  0  0
    3.7750    2.4833    0.0000 N   0  0  0  0  0  0  0  0  0  0  0  0
   10.0917    1.2333    0.0000 C   0  0  0  0  0  0  0  0  0  0  0  0
    5.8750    1.2625    0.0000 N   0  0  0  0  0  0  0  0  0  0  0  0
    9.3917    2.4625    0.0000 C   0  0  0  0  0  0  0  0  0  0  0  0
    2.3750    2.4833    0.0000 C   0  0  0  0  0  0  0  0  0  0  0  0
    7.2750    1.2583    0.0000 C   0  0  0  0  0  0  0  0  0  0  0  0
    7.9917    2.4708    0.0000 C   0  0  0  0  0  0  0  0  0  0  0  0
    1.6750    6.1042    0.0000 C   0  0  0  0  0  0  0  0  0  0  0  0
    1.6750    3.6958    0.0000 C   0  0  0  0  0  0  0  0  0  0  0  0
    2.3750    4.9000    0.0000 C   0  0  0  0  0  0  0  0  0  0  0  0
   12.1875    0.0000    0.0000 O   0  5  0  0  0  0  0  0  0  0  0  0
    3.7750    0.0500    0.0000 S   0  0  0  0  0  0  0  0  0  0  0  0
   12.2042    2.4333    0.0000 O   0  0  0  0  0  0  0  0  0  0  0  0
    0.2875    6.2542    0.0000 O   0  0  0  0  0  0  0  0  0  0  0  0
    2.2417    7.3875    0.0000 C   0  0  0  0  0  0  0  0  0  0  0  0
    0.0000    7.6167    0.0000 C   0  0  0  0  0  0  0  0  0  0  0  0
    9.3875    0.0333    0.0000 C   0  0  0  0  0  0  0  0  0  0  0  0
    7.9750    0.0458    0.0000 C   0  0  0  0  0  0  0  0  0  0  0  0
    1.6750    1.2625    0.0000 O   0  0  0  0  0  0  0  0  0  0  0  0
    1.2042    8.3167    0.0000 C   0  0  0  0  0  0  0  0  0  0  0  0
    7.3042    3.6958    0.0000 Cl  0  0  0  0  0  0  0  0  0  0  0  0
  2  5  1  0  0  0  0
  3  2  1  0  0  0  0
  4  1  1  0  0  0  0
  5  8  1  0  0  0  0
  6  4  1  0  0  0  0
  7  3  1  0  0  0  0
  8 20  2  0  0  0  0
  9  6  2  0  0  0  0
 10 12  1  0  0  0  0
 11  7  1  0  0  0  0
 12 11  2  0  0  0  0
 13  1  1  0  0  0  0
 14  2  2  0  0  0  0
 15  1  2  0  0  0  0
 16 10  1  0  0  0  0
 17 10  2  0  0  0  0
 18 16  1  0  0  0  0
 19  4  2  0  0  0  0
 20 19  1  0  0  0  0
 21  7  2  0  0  0  0
 22 17  1  0  0  0  0
 23  9  1  0  0  0  0
  8  9  1  0  0  0  0
 18 22  2  0  0  0  0
M  CHG  2   1   1  13  -1
M  END
>  <ID> (6598688)
6598688

>  <Supplier> (6598688)
ChemBridge

>  <clogP> (6598688)
4.270000000000001e+000

>  <RB> (6598688)
3

>  <tPSA> (6598688)
9.741000000000000e+001

>  <Hacc> (6598688)
4

>  <Hdon> (6598688)
2

>  <LogSw> (6598688)
-5.801000000000000e+000

>  <Group> (6598688)
2

>  <Core> (6598688)
435

$$$$
6598687
  -ISIS-  03310818242D

 23 25  0  0  0  0  0  0  0  0999 V2000
   -1.4833    0.6125    0.0000 N   0  0  3  0  0  0  0  0  0  0  0  0
   -2.1000    1.2708    0.0000 C   0  0  0  0  0  0  0  0  0  0  0  0
   -1.9333   -0.2042    0.0000 C   0  0  0  0  0  0  0  0  0  0  0  0
   -2.9333    0.9125    0.0000 C   0  0  0  0  0  0  0  0  0  0  0  0
   -2.8333   -0.0042    0.0000 C   0  0  0  0  0  0  0  0  0  0  0  0
   -0.5625    0.7458    0.0000 C   0  0  0  0  0  0  0  0  0  0  0  0
    0.0000    0.0000    0.0000 C   0  0  0  0  0  0  0  0  0  0  0  0
    0.9167    0.0000    0.0000 N   0  0  0  0  0  0  0  0  0  0  0  0
    1.7292    0.4958    0.0000 C   0  0  0  0  0  0  0  0  0  0  0  0
    2.5042    0.0833    0.0000 C   0  0  0  0  0  0  0  0  0  0  0  0
    3.3042    0.5458    0.0000 C   0  0  0  0  0  0  0  0  0  0  0  0
   -1.5208   -1.0500    0.0000 O   0  0  0  0  0  0  0  0  0  0  0  0
   -1.8833    2.2083    0.0000 O   0  0  0  0  0  0  0  0  0  0  0  0
   -0.4500   -0.7875    0.0000 O   0  0  0  0  0  0  0  0  0  0  0  0
    1.6792    1.4208    0.0000 C   0  0  0  0  0  0  0  0  0  0  0  0
    3.2667    1.5000    0.0000 C   0  0  0  0  0  0  0  0  0  0  0  0
    2.5375   -0.8500    0.0000 F   0  0  0  0  0  0  0  0  0  0  0  0
    2.4292    1.8958    0.0000 C   0  0  0  0  0  0  0  0  0  0  0  0
    4.0542    1.9958    0.0000 F   0  0  0  0  0  0  0  0  0  0  0  0
   -3.7833    1.2708    0.0000 C   0  0  0  0  0  0  0  0  0  0  0  0
   -3.5833   -0.5792    0.0000 C   0  0  0  0  0  0  0  0  0  0  0  0
   -4.4333   -0.1875    0.0000 C   0  0  0  0  0  0  0  0  0  0  0  0
   -4.5333    0.7000    0.0000 C   0  0  0  0  0  0  0  0  0  0  0  0
  2  1  1  0  0  0  0
  3  1  1  0  0  0  0
  4  2  1  0  0  0  0
  5  3  1  0  0  0  0
  6  1  1  0  0  0  0
  7  6  1  0  0  0  0
  8  7  1  0  0  0  0
  9  8  1  0  0  0  0
 10  9  1  0  0  0  0
 11 10  2  0  0  0  0
 12  3  2  0  0  0  0
 13  2  2  0  0  0  0
 14  7  2  0  0  0  0
 15  9  2  0  0  0  0
 16 18  2  0  0  0  0
 17 10  1  0  0  0  0
 18 15  1  0  0  0  0
 19 16  1  0  0  0  0
 20  4  2  0  0  0  0
 21  5  2  0  0  0  0
 22 21  1  0  0  0  0
 23 20  1  0  0  0  0
  4  5  1  0  0  0  0
 23 22  2  0  0  0  0
 16 11  1  0  0  0  0
M  END
>  <ID> (6598687)
6598687

>  <Supplier> (6598687)
ChemBridge

>  <clogP> (6598687)
2.290000000000000e+000

>  <RB> (6598687)
3

>  <tPSA> (6598687)
6.647999999999998e+001

>  <Hacc> (6598687)
3

>  <Hdon> (6598687)
1

>  <LogSw> (6598687)
-3.462000000000000e+000

>  <Group> (6598687)
3

$$$$
6719406
  -ISIS-  03310818242D

 24 25  0  0  0  0  0  0  0  0999 V2000
    5.7375   -4.8292    0.0000 S   0  0  3  0  0  0  0  0  0  0  0  0
    5.7375   -4.0042    0.0000 N   0  0  3  0  0  0  0  0  0  0  0  0
    6.4500   -3.5875    0.0000 C   0  0  0  0  0  0  0  0  0  0  0  0
    5.0167   -3.5917    0.0000 C   0  0  0  0  0  0  0  0  0  0  0  0
    7.1667   -4.0000    0.0000 C   0  0  0  0  0  0  0  0  0  0  0  0
    5.0167   -2.7625    0.0000 C   0  0  0  0  0  0  0  0  0  0  0  0
    4.3042   -2.3500    0.0000 C   0  0  0  0  0  0  0  0  0  0  0  0
    6.5292   -5.0417    0.0000 O   0  0  0  0  0  0  0  0  0  0  0  0
    6.1417   -5.5417    0.0000 O   0  0  0  0  0  0  0  0  0  0  0  0
    7.8792   -3.5875    0.0000 N   0  0  0  0  0  0  0  0  0  0  0  0
    3.5917   -2.7625    0.0000 C   0  0  0  0  0  0  0  0  0  0  0  0
    4.3042   -4.0042    0.0000 C   0  0  0  0  0  0  0  0  0  0  0  0
    7.1667   -4.8250    0.0000 O   0  0  0  0  0  0  0  0  0  0  0  0
    3.5917   -3.5917    0.0000 C   0  0  0  0  0  0  0  0  0  0  0  0
    5.0250   -5.2417    0.0000 C   0  0  0  0  0  0  0  0  0  0  0  0
    8.5917   -4.0000    0.0000 C   0  0  0  0  0  0  0  0  0  0  0  0
    4.3042   -1.5250    0.0000 Cl  0  0  0  0  0  0  0  0  0  0  0  0
   10.0167   -4.8250    0.0000 C   0  0  0  0  0  0  0  0  0  0  0  0
    2.8792   -2.3500    0.0000 Cl  0  0  0  0  0  0  0  0  0  0  0  0
   10.7292   -5.2375    0.0000 I   0  0  0  0  0  0  0  0  0  0  0  0
    9.3042   -3.5792    0.0000 C   0  0  0  0  0  0  0  0  0  0  0  0
    8.5917   -4.8250    0.0000 C   0  0  0  0  0  0  0  0  0  0  0  0
   10.0167   -4.0000    0.0000 C   0  0  0  0  0  0  0  0  0  0  0  0
    9.3000   -5.2375    0.0000 C   0  0  0  0  0  0  0  0  0  0  0  0
  2  1  1  0  0  0  0
  3  2  1  0  0  0  0
  4  2  1  0  0  0  0
  5  3  1  0  0  0  0
  6  4  1  0  0  0  0
  7  6  2  0  0  0  0
  8  1  2  0  0  0  0
  9  1  2  0  0  0  0
 10  5  1  0  0  0  0
 11 14  2  0  0  0  0
 12  4  2  0  0  0  0
 13  5  2  0  0  0  0
 14 12  1  0  0  0  0
 15  1  1  0  0  0  0
 16 10  1  0  0  0  0
 17  7  1  0  0  0  0
 18 24  2  0  0  0  0
 19 11  1  0  0  0  0
 20 18  1  0  0  0  0
 21 16  1  0  0  0  0
 22 16  2  0  0  0  0
 23 21  2  0  0  0  0
 24 22  1  0  0  0  0
 11  7  1  0  0  0  0
 18 23  1  0  0  0  0
M  END
>  <ID> (6719406)
6719406

>  <Supplier> (6719406)
ChemBridge

>  <clogP> (6719406)
5.119999999999997e+000

>  <RB> (6719406)
4

>  <tPSA> (6719406)
6.647999999999998e+001

>  <Hacc> (6719406)
3

>  <Hdon> (6719406)
1

>  <LogSw> (6719406)
-7.210000000000000e+000

>  <Group> (6719406)
1

>  <Core> (6719406)
084

$$$$
7572979
  -ISIS-  03310818262D

 31 33  0  0  0  0  0  0  0  0999 V2000
    2.7500   -1.0042    0.0000 C   0  0  0  0  0  0  0  0  0  0  0  0
   -1.5375   -5.1167    0.0000 C   0  0  0  0  0  0  0  0  0  0  0  0
   -2.2583   -5.5292    0.0000 C   0  0  0  0  0  0  0  0  0  0  0  0
    3.4667   -1.4125    0.0000 N   0  0  0  0  0  0  0  0  0  0  0  0
   -0.8208   -3.0667    0.0000 C   0  0  0  0  0  0  0  0  0  0  0  0
    2.0375   -1.4167    0.0000 C   0  0  0  0  0  0  0  0  0  0  0  0
   -2.2583   -6.3542    0.0000 C   0  0  0  0  0  0  0  0  0  0  0  0
   -1.5333   -4.2917    0.0000 O   0  0  0  0  0  0  0  0  0  0  0  0
   -0.8250   -5.5417    0.0000 C   0  0  0  0  0  0  0  0  0  0  0  0
    2.7417   -0.1792    0.0000 O   0  0  0  0  0  0  0  0  0  0  0  0
   -0.1083   -2.6625    0.0000 O   0  0  0  0  0  0  0  0  0  0  0  0
   -1.5333   -2.6625    0.0000 O   0  0  0  0  0  0  0  0  0  0  0  0
    1.3167   -1.0042    0.0000 C   0  0  0  0  0  0  0  0  0  0  0  0
    2.0375   -2.2500    0.0000 C   0  0  0  0  0  0  0  0  0  0  0  0
    4.1792   -1.0000    0.0000 C   0  0  0  0  0  0  0  0  0  0  0  0
   -0.8125   -3.8917    0.0000 C   0  0  0  0  0  0  0  0  0  0  0  0
   -2.9708   -5.1125    0.0000 C   0  0  3  0  0  0  0  0  0  0  0  0
    0.6042   -2.2500    0.0000 C   0  0  0  0  0  0  0  0  0  0  0  0
   -1.5458   -6.7750    0.0000 C   0  0  0  0  0  0  0  0  0  0  0  0
   -0.8333   -6.3667    0.0000 C   0  0  0  0  0  0  0  0  0  0  0  0
    1.3167   -2.6625    0.0000 C   0  0  0  0  0  0  0  0  0  0  0  0
    0.6042   -1.4250    0.0000 C   0  0  0  0  0  0  0  0  0  0  0  0
    5.6042   -0.1667    0.0000 C   0  0  0  0  0  0  0  0  0  0  0  0
    4.1667   -0.1792    0.0000 C   0  0  0  0  0  0  0  0  0  0  0  0
    4.8917   -1.4125    0.0000 C   0  0  0  0  0  0  0  0  0  0  0  0
    5.6042   -0.9917    0.0000 C   0  0  0  0  0  0  0  0  0  0  0  0
    4.8792    0.2375    0.0000 C   0  0  0  0  0  0  0  0  0  0  0  0
   -2.9708   -4.2875    0.0000 C   0  0  0  0  0  0  0  0  0  0  0  0
   -3.6875   -5.5250    0.0000 C   0  0  0  0  0  0  0  0  0  0  0  0
   -0.1208   -6.7875    0.0000 C   0  0  0  0  0  0  0  0  0  0  0  0
    6.3167    0.2458    0.0000 C   0  0  0  0  0  0  0  0  0  0  0  0
  2  8  1  0  0  0  0
  3  2  1  0  0  0  0
  4  1  1  0  0  0  0
  5 11  1  0  0  0  0
  6  1  1  0  0  0  0
  7  3  2  0  0  0  0
  8 16  1  0  0  0  0
  9  2  2  0  0  0  0
 10  1  2  0  0  0  0
 11 18  1  0  0  0  0
 12  5  2  0  0  0  0
 13  6  2  0  0  0  0
 14  6  1  0  0  0  0
 15  4  1  0  0  0  0
 16  5  1  0  0  0  0
 17  3  1  0  0  0  0
 18 21  1  0  0  0  0
 19 20  2  0  0  0  0
 20  9  1  0  0  0  0
 21 14  2  0  0  0  0
 22 13  1  0  0  0  0
 23 26  2  0  0  0  0
 24 15  1  0  0  0  0
 25 15  2  0  0  0  0
 26 25  1  0  0  0  0
 27 24  2  0  0  0  0
 28 17  1  0  0  0  0
 29 17  1  0  0  0  0
 30 20  1  0  0  0  0
 31 23  1  0  0  0  0
 22 18  2  0  0  0  0
 23 27  1  0  0  0  0
  7 19  1  0  0  0  0
M  END
>  <ID> (7572979)
7572979

>  <Supplier> (7572979)
ChemBridge

>  <clogP> (7572979)
5.744000000000000e+000

>  <RB> (7572979)
7

>  <tPSA> (7572979)
6.463000000000000e+001

>  <Hacc> (7572979)
4

>  <Hdon> (7572979)
1

>  <LogSw> (7572979)
-7.443000000000001e+000

>  <Group> (7572979)
2

>  <Core> (7572979)
314

$$$$
6815090
  -ISIS-  03310818242D

 24 27  0  0  0  0  0  0  0  0999 V2000
    5.6375   -2.5000    0.0000 N   0  0  3  0  0  0  0  0  0  0  0  0
    6.3375   -2.9042    0.0000 C   0  0  0  0  0  0  0  0  0  0  0  0
    4.2417   -1.6792    0.0000 S   0  0  0  0  0  0  0  0  0  0  0  0
    5.6417   -1.6917    0.0000 C   0  0  0  0  0  0  0  0  0  0  0  0
    4.9417   -2.9000    0.0000 C   0  0  0  0  0  0  0  0  0  0  0  0
    4.9417   -1.2792    0.0000 C   0  0  0  0  0  0  0  0  0  0  0  0
    4.2417   -2.4875    0.0000 C   0  0  0  0  0  0  0  0  0  0  0  0
    7.1042   -2.4625    0.0000 N   0  0  0  0  0  0  0  0  0  0  0  0
    6.3292   -3.7917    0.0000 O   0  0  0  0  0  0  0  0  0  0  0  0
    9.2042   -2.8667    0.0000 N   0  0  0  0  0  0  0  0  0  0  0  0
    7.8042   -2.8542    0.0000 C   0  0  0  0  0  0  0  0  0  0  0  0
    8.5042   -2.4542    0.0000 C   0  0  0  0  0  0  0  0  0  0  0  0
    6.3375   -1.2917    0.0000 C   0  0  0  0  0  0  0  0  0  0  0  0
    4.9375   -3.7042    0.0000 C   0  0  0  0  0  0  0  0  0  0  0  0
    3.5417   -2.8875    0.0000 C   0  0  0  0  0  0  0  0  0  0  0  0
    4.9500   -0.4792    0.0000 C   0  0  0  0  0  0  0  0  0  0  0  0
    9.9042   -2.4542    0.0000 C   0  0  0  0  0  0  0  0  0  0  0  0
    8.5042   -1.6500    0.0000 C   0  0  0  0  0  0  0  0  0  0  0  0
    4.2375   -4.1042    0.0000 C   0  0  0  0  0  0  0  0  0  0  0  0
    6.3417   -0.4917    0.0000 C   0  0  0  0  0  0  0  0  0  0  0  0
    5.6417   -0.0792    0.0000 C   0  0  0  0  0  0  0  0  0  0  0  0
    3.5375   -3.6917    0.0000 C   0  0  0  0  0  0  0  0  0  0  0  0
    9.9125   -1.6500    0.0000 C   0  0  0  0  0  0  0  0  0  0  0  0
    9.2042   -1.2417    0.0000 C   0  0  0  0  0  0  0  0  0  0  0  0
  2  1  1  0  0  0  0
  3  7  1  0  0  0  0
  4  1  1  0  0  0  0
  5  1  1  0  0  0  0
  6  4  2  0  0  0  0
  7  5  1  0  0  0  0
  8  2  1  0  0  0  0
  9  2  2  0  0  0  0
 10 12  1  0  0  0  0
 11  8  1  0  0  0  0
 12 11  1  0  0  0  0
 13  4  1  0  0  0  0
 14  5  2  0  0  0  0
 15  7  2  0  0  0  0
 16  6  1  0  0  0  0
 17 10  2  0  0  0  0
 18 12  2  0  0  0  0
 19 14  1  0  0  0  0
 20 13  2  0  0  0  0
 21 20  1  0  0  0  0
 22 19  2  0  0  0  0
 23 24  2  0  0  0  0
 24 18  1  0  0  0  0
  6  3  1  0  0  0  0
 15 22  1  0  0  0  0
 16 21  2  0  0  0  0
 23 17  1  0  0  0  0
M  END
>  <ID> (6815090)
6815090

>  <Supplier> (6815090)
ChemBridge

>  <clogP> (6815090)
2.280000000000000e+000

>  <RB> (6815090)
2

>  <tPSA> (6815090)
4.523000000000000e+001

>  <Hacc> (6815090)
2

>  <Hdon> (6815090)
1

>  <LogSw> (6815090)
-3.388000000000000e+000

>  <Group> (6815090)
3

$$$$
7572977
  -ISIS-  03310818262D

 21 22  0  0  0  0  0  0  0  0999 V2000
    5.4417   -7.0292    0.0000 S   0  0  3  0  0  0  0  0  0  0  0  0
    5.4417   -7.8542    0.0000 N   0  0  3  0  0  0  0  0  0  0  0  0
    6.1542   -8.2667    0.0000 C   0  0  0  0  0  0  0  0  0  0  0  0
    6.8750   -7.8625    0.0000 C   0  0  0  0  0  0  0  0  0  0  0  0
    5.4417   -6.2000    0.0000 C   0  0  0  0  0  0  0  0  0  0  0  0
    6.2750   -7.0292    0.0000 O   0  0  0  0  0  0  0  0  0  0  0  0
    4.6167   -7.0250    0.0000 O   0  0  0  0  0  0  0  0  0  0  0  0
    7.5917   -8.2792    0.0000 N   0  0  0  0  0  0  0  0  0  0  0  0
    6.8792   -7.0292    0.0000 O   0  0  0  0  0  0  0  0  0  0  0  0
    4.7250   -5.7875    0.0000 C   0  0  0  0  0  0  0  0  0  0  0  0
    6.1542   -5.7792    0.0000 C   0  0  0  0  0  0  0  0  0  0  0  0
    5.4292   -4.5417    0.0000 C   0  0  0  0  0  0  0  0  0  0  0  0
    6.1542   -4.9500    0.0000 C   0  0  0  0  0  0  0  0  0  0  0  0
    4.7167   -4.9625    0.0000 C   0  0  0  0  0  0  0  0  0  0  0  0
    5.4292   -3.7167    0.0000 F   0  0  0  0  0  0  0  0  0  0  0  0
    8.3125   -7.8667    0.0000 C   0  0  3  0  0  0  0  0  0  0  0  0
    4.7250   -8.2667    0.0000 C   0  0  0  0  0  0  0  0  0  0  0  0
    9.0667   -8.2000    0.0000 C   0  0  0  0  0  0  0  0  0  0  0  0
    8.3917   -7.0417    0.0000 C   0  0  0  0  0  0  0  0  0  0  0  0
    9.2125   -6.8625    0.0000 C   0  0  0  0  0  0  0  0  0  0  0  0
    9.6250   -7.5792    0.0000 C   0  0  0  0  0  0  0  0  0  0  0  0
  2  1  1  0  0  0  0
  3  2  1  0  0  0  0
  4  3  1  0  0  0  0
  5  1  1  0  0  0  0
  6  1  2  0  0  0  0
  7  1  2  0  0  0  0
  8  4  1  0  0  0  0
  9  4  2  0  0  0  0
 10  5  1  0  0  0  0
 11  5  2  0  0  0  0
 12 13  2  0  0  0  0
 13 11  1  0  0  0  0
 14 10  2  0  0  0  0
 15 12  1  0  0  0  0
 16  8  1  0  0  0  0
 17  2  1  0  0  0  0
 18 16  1  0  0  0  0
 19 16  1  0  0  0  0
 20 19  1  0  0  0  0
 21 18  1  0  0  0  0
 14 12  1  0  0  0  0
 20 21  1  0  0  0  0
M  END
>  <ID> (7572977)
7572977

>  <Supplier> (7572977)
ChemBridge

>  <clogP> (7572977)
2.187000000000000e+000

>  <RB> (7572977)
4

>  <tPSA> (7572977)
6.647999999999998e+001

>  <Hacc> (7572977)
4

>  <Hdon> (7572977)
1

>  <LogSw> (7572977)
-2.772000000000000e+000

>  <Group> (7572977)
3

>  <Core> (7572977)
084

$$$$
6642584
  -ISIS-  03310818242D

 21 22  0  0  0  0  0  0  0  0999 V2000
   -1.8500   -1.1542    0.0000 N   0  0  0  0  0  0  0  0  0  0  0  0
   -2.6000   -1.1542    0.0000 C   0  0  0  0  0  0  0  0  0  0  0  0
   -1.4833   -0.5292    0.0000 C   0  0  0  0  0  0  0  0  0  0  0  0
    1.4875    0.7208    0.0000 N   0  0  3  0  0  0  0  0  0  0  0  0
   -1.8458    0.1208    0.0000 S   0  0  0  0  0  0  0  0  0  0  0  0
   -2.9833   -1.7792    0.0000 O   0  0  0  0  0  0  0  0  0  0  0  0
   -2.9833   -0.5167    0.0000 C   0  0  3  0  0  0  0  0  0  0  0  0
   -0.7333   -0.5292    0.0000 N   0  0  0  0  0  0  0  0  0  0  0  0
    2.9875    0.6958    0.0000 O   0  0  0  0  0  0  0  0  0  0  0  0
    0.7500    0.7125    0.0000 C   0  0  0  0  0  0  0  0  0  0  0  0
    0.3667    0.1000    0.0000 C   0  0  0  0  0  0  0  0  0  0  0  0
    1.8792    1.3500    0.0000 C   0  0  0  0  0  0  0  0  0  0  0  0
    1.8542    0.0708    0.0000 C   0  0  0  0  0  0  0  0  0  0  0  0
   -0.3708    0.1125    0.0000 C   0  0  0  0  0  0  0  0  0  0  0  0
    2.6167    1.3333    0.0000 C   0  0  0  0  0  0  0  0  0  0  0  0
    2.6000    0.0708    0.0000 C   0  0  0  0  0  0  0  0  0  0  0  0
   -2.6125    0.1333    0.0000 C   0  0  0  0  0  0  0  0  0  0  0  0
   -3.7333   -0.5000    0.0000 C   0  0  0  0  0  0  0  0  0  0  0  0
   -4.1000    0.1458    0.0000 C   0  0  0  0  0  0  0  0  0  0  0  0
   -2.9708    0.7500    0.0000 C   0  0  0  0  0  0  0  0  0  0  0  0
   -3.7208    0.7708    0.0000 C   0  0  0  0  0  0  0  0  0  0  0  0
  2  1  1  0  0  0  0
  3  1  1  0  0  0  0
  4 10  1  0  0  0  0
  5  3  2  0  0  0  0
  6  2  2  0  0  0  0
  7  2  1  0  0  0  0
  8  3  1  0  0  0  0
  9 16  1  0  0  0  0
 10 11  1  0  0  0  0
 11 14  1  0  0  0  0
 12  4  1  0  0  0  0
 13  4  1  0  0  0  0
 14  8  1  0  0  0  0
 15 12  1  0  0  0  0
 16 13  1  0  0  0  0
 17  7  1  0  0  0  0
 18  7  1  0  0  0  0
 19 18  1  0  0  0  0
 20 17  1  0  0  0  0
 21 19  1  0  0  0  0
 21 20  1  0  0  0  0
 15  9  1  0  0  0  0
M  END
>  <ID> (6642584)
6642584

>  <Supplier> (6642584)
ChemBridge

>  <clogP> (6642584)
4.000000000000000e+000

>  <RB> (6642584)
5

>  <tPSA> (6642584)
5.359999999999999e+001

>  <Hacc> (6642584)
3

>  <Hdon> (6642584)
2

>  <LogSw> (6642584)
-4.902000000000000e+000

>  <Group> (6642584)
3

>  <Core> (6642584)
071

$$$$
6642585
  -ISIS-  03310818242D

 20 21  0  0  0  0  0  0  0  0999 V2000
    2.8167   -2.5542    0.0000 N   0  3  0  0  0  0  0  0  0  0  0  0
    7.8125   -3.7792    0.0000 N   0  0  3  0  0  0  0  0  0  0  0  0
    7.1000   -4.1917    0.0000 C   0  0  0  0  0  0  0  0  0  0  0  0
    6.3792   -3.7792    0.0000 C   0  0  0  0  0  0  0  0  0  0  0  0
    3.5375   -2.9667    0.0000 C   0  0  0  0  0  0  0  0  0  0  0  0
    9.2292   -2.9417    0.0000 N   0  0  3  0  0  0  0  0  0  0  0  0
    2.8167   -1.7292    0.0000 O   0  5  0  0  0  0  0  0  0  0  0  0
    5.6750   -4.1875    0.0000 C   0  0  0  0  0  0  0  0  0  0  0  0
    2.1042   -2.9750    0.0000 O   0  0  0  0  0  0  0  0  0  0  0  0
    7.8000   -2.9542    0.0000 C   0  0  0  0  0  0  0  0  0  0  0  0
    8.5250   -4.1792    0.0000 C   0  0  0  0  0  0  0  0  0  0  0  0
    7.1000   -5.0167    0.0000 O   0  0  0  0  0  0  0  0  0  0  0  0
    3.5417   -3.7917    0.0000 C   0  0  0  0  0  0  0  0  0  0  0  0
    4.2500   -2.5500    0.0000 C   0  0  0  0  0  0  0  0  0  0  0  0
    9.2375   -3.7667    0.0000 C   0  0  0  0  0  0  0  0  0  0  0  0
    8.5167   -2.5292    0.0000 C   0  0  0  0  0  0  0  0  0  0  0  0
    4.9625   -3.7792    0.0000 C   0  0  0  0  0  0  0  0  0  0  0  0
    4.2542   -4.1917    0.0000 C   0  0  0  0  0  0  0  0  0  0  0  0
    4.9625   -2.9542    0.0000 C   0  0  0  0  0  0  0  0  0  0  0  0
    9.9417   -2.5292    0.0000 C   0  0  0  0  0  0  0  0  0  0  0  0
  2  3  1  0  0  0  0
  3  4  1  0  0  0  0
  4  8  2  0  0  0  0
  5  1  1  0  0  0  0
  6 15  1  0  0  0  0
  7  1  1  0  0  0  0
  8 17  1  0  0  0  0
  9  1  2  0  0  0  0
 10  2  1  0  0  0  0
 11  2  1  0  0  0  0
 12  3  2  0  0  0  0
 13  5  1  0  0  0  0
 14  5  2  0  0  0  0
 15 11  1  0  0  0  0
 16 10  1  0  0  0  0
 17 19  2  0  0  0  0
 18 13  2  0  0  0  0
 19 14  1  0  0  0  0
 20  6  1  0  0  0  0
 17 18  1  0  0  0  0
 16  6  1  0  0  0  0
M  CHG  2   1   1   7  -1
M  END
>  <ID> (6642585)
6642585

>  <Supplier> (6642585)
ChemBridge

>  <clogP> (6642585)
2.080000000000000e+000

>  <RB> (6642585)
2

>  <tPSA> (6642585)
6.669000000000000e+001

>  <Hacc> (6642585)
4

>  <Hdon> (6642585)
0

>  <LogSw> (6642585)
-3.375000000000000e+000

>  <Group> (6642585)
3

>  <Core> (6642585)
435

$$$$
7934675
  -ISIS-  03310818272D

 23 25  0  0  0  0  0  0  0  0999 V2000
    2.0417    0.8750    0.0000 C   0  0  0  0  0  0  0  0  0  0  0  0
    2.3417    1.5625    0.0000 N   0  0  3  0  0  0  0  0  0  0  0  0
    1.2917    0.9583    0.0000 O   0  0  0  0  0  0  0  0  0  0  0  0
    1.7917    2.0625    0.0000 C   0  0  0  0  0  0  0  0  0  0  0  0
    1.1417    1.6875    0.0000 C   0  0  0  0  0  0  0  0  0  0  0  0
    3.0792    1.7208    0.0000 C   0  0  0  0  0  0  0  0  0  0  0  0
    5.5500    0.9125    0.0000 C   0  0  0  0  0  0  0  0  0  0  0  0
    4.8167    0.7583    0.0000 N   0  0  0  0  0  0  0  0  0  0  0  0
    4.3167    1.3208    0.0000 C   0  0  0  0  0  0  0  0  0  0  0  0
    3.5792    1.1583    0.0000 C   0  0  0  0  0  0  0  0  0  0  0  0
    2.4167    0.2250    0.0000 O   0  0  0  0  0  0  0  0  0  0  0  0
    6.0542    0.3583    0.0000 C   0  0  0  0  0  0  0  0  0  0  0  0
    5.7792    1.6333    0.0000 C   0  0  0  0  0  0  0  0  0  0  0  0
    4.5500    2.0333    0.0000 O   0  0  0  0  0  0  0  0  0  0  0  0
    6.7875    0.5125    0.0000 C   0  0  0  0  0  0  0  0  0  0  0  0
    6.5167    1.7833    0.0000 C   0  0  0  0  0  0  0  0  0  0  0  0
    7.0167    1.2250    0.0000 C   0  0  0  0  0  0  0  0  0  0  0  0
    1.7917    2.8125    0.0000 C   0  0  0  0  0  0  0  0  0  0  0  0
    0.4917    2.0625    0.0000 C   0  0  0  0  0  0  0  0  0  0  0  0
    5.8167   -0.3542    0.0000 C   0  0  0  0  0  0  0  0  0  0  0  0
    6.7500    2.4958    0.0000 C   0  0  0  0  0  0  0  0  0  0  0  0
    1.1417    3.1875    0.0000 C   0  0  0  0  0  0  0  0  0  0  0  0
    0.4917    2.8125    0.0000 C   0  0  0  0  0  0  0  0  0  0  0  0
  2  1  1  0  0  0  0
  3  1  1  0  0  0  0
  4  2  1  0  0  0  0
  5  3  1  0  0  0  0
  6  2  1  0  0  0  0
  7  8  1  0  0  0  0
  8  9  1  0  0  0  0
  9 10  1  0  0  0  0
 10  6  1  0  0  0  0
 11  1  2  0  0  0  0
 12  7  2  0  0  0  0
 13  7  1  0  0  0  0
 14  9  2  0  0  0  0
 15 12  1  0  0  0  0
 16 13  2  0  0  0  0
 17 16  1  0  0  0  0
 18  4  1  0  0  0  0
 19  5  1  0  0  0  0
 20 12  1  0  0  0  0
 21 16  1  0  0  0  0
 22 18  2  0  0  0  0
 23 19  2  0  0  0  0
  5  4  2  0  0  0  0
 23 22  1  0  0  0  0
 15 17  2  0  0  0  0
M  END
>  <ID> (7934675)
7934675

>  <Supplier> (7934675)
ChemBridge

>  <clogP> (7934675)
2.729000000000000e+000

>  <RB> (7934675)
4

>  <tPSA> (7934675)
6.424000000000000e+001

>  <Hacc> (7934675)
3

>  <Hdon> (7934675)
1

>  <LogSw> (7934675)
-3.794000000000000e+000

>  <Group> (7934675)
1

$$$$
7801560
  -ISIS-  03310818272D

 32 34  0  0  0  0  0  0  0  0999 V2000
   -9.8625   -0.2542    0.0000 C   0  0  0  0  0  0  0  0  0  0  0  0
   -8.8375    2.2458    0.0000 S   0  0  0  0  0  0  0  0  0  0  0  0
  -12.4792   -0.0917    0.0000 C   0  0  0  0  0  0  0  0  0  0  0  0
  -10.8792    3.9208    0.0000 C   0  0  0  0  0  0  0  0  0  0  0  0
  -13.1292    2.5333    0.0000 C   0  0  0  0  0  0  0  0  0  0  0  0
  -13.5417   10.6667    0.0000 N   0  3  0  0  0  0  0  0  0  0  0  0
   -8.3792   -2.7042    0.0000 C   0  0  0  0  0  0  0  0  0  0  0  0
  -10.9625    6.7417    0.0000 C   0  0  0  0  0  0  0  0  0  0  0  0
  -13.3375    7.9250    0.0000 C   0  0  0  0  0  0  0  0  0  0  0  0
   -1.6708   -5.0000    0.0000 C   0  0  0  0  0  0  0  0  0  0  0  0
   -5.6958   -2.7042    0.0000 N   0  0  0  0  0  0  0  0  0  0  0  0
  -15.5875    3.8375    0.0000 C   0  0  0  0  0  0  0  0  0  0  0  0
   -4.3833   -5.0000    0.0000 N   0  0  0  0  0  0  0  0  0  0  0  0
  -11.3292   12.1042    0.0000 O   0  5  0  0  0  0  0  0  0  0  0  0
   10.5500   -7.3792    0.0000 C   0  0  0  0  0  0  0  0  0  0  0  0
  -16.0000   11.7667    0.0000 O   0  0  0  0  0  0  0  0  0  0  0  0
   -0.2833   -2.6500    0.0000 S   0  0  0  0  0  0  0  0  0  0  0  0
   -9.6542   -5.1250    0.0000 O   0  0  0  0  0  0  0  0  0  0  0  0
  -15.5875    6.6542    0.0000 C   0  0  0  0  0  0  0  0  0  0  0  0
   11.9167   -9.7042    0.0000 C   0  0  0  0  0  0  0  0  0  0  0  0
    7.8292   -7.3792    0.0000 C   0  0  0  0  0  0  0  0  0  0  0  0
  -14.1917   -2.2625    0.0000 Cl  0  0  0  0  0  0  0  0  0  0  0  0
   -0.2708   -7.2875    0.0000 N   0  0  0  0  0  0  0  0  0  0  0  0
   10.5500  -12.1042    0.0000 C   0  0  0  0  0  0  0  0  0  0  0  0
    6.4500   -9.7042    0.0000 C   0  0  0  0  0  0  0  0  0  0  0  0
    7.8417  -12.1042    0.0000 C   0  0  0  0  0  0  0  0  0  0  0  0
   11.8917   -5.0292    0.0000 O   0  0  0  0  0  0  0  0  0  0  0  0
   14.6292   -9.6917    0.0000 O   0  0  0  0  0  0  0  0  0  0  0  0
    2.4542   -7.3417    0.0000 C   0  0  0  0  0  0  0  0  0  0  0  0
    3.7375   -9.6792    0.0000 C   0  0  0  0  0  0  0  0  0  0  0  0
   14.6042   -5.0167    0.0000 C   0  0  0  0  0  0  0  0  0  0  0  0
   16.0000  -12.0292    0.0000 C   0  0  0  0  0  0  0  0  0  0  0  0
  2  1  1  0  0  0  0
  3  1  2  0  0  0  0
  4  2  1  0  0  0  0
  5  3  1  0  0  0  0
  6  9  1  0  0  0  0
  7  1  1  0  0  0  0
  8  4  1  0  0  0  0
  9  8  2  0  0  0  0
 10 13  1  0  0  0  0
 11  7  1  0  0  0  0
 12  5  1  0  0  0  0
 13 11  1  0  0  0  0
 14  6  1  0  0  0  0
 15 21  2  0  0  0  0
 16  6  2  0  0  0  0
 17 10  2  0  0  0  0
 18  7  2  0  0  0  0
 19 12  2  0  0  0  0
 20 24  2  0  0  0  0
 21 25  1  0  0  0  0
 22  3  1  0  0  0  0
 23 10  1  0  0  0  0
 24 26  1  0  0  0  0
 25 30  1  0  0  0  0
 26 25  2  0  0  0  0
 27 15  1  0  0  0  0
 28 20  1  0  0  0  0
 29 23  1  0  0  0  0
 30 29  1  0  0  0  0
 31 27  1  0  0  0  0
 32 28  1  0  0  0  0
  5  4  2  0  0  0  0
 19  9  1  0  0  0  0
 20 15  1  0  0  0  0
M  CHG  2   6   1  14  -1
M  END
>  <ID> (7801560)
7801560

>  <Supplier> (7801560)
ChemBridge

>  <clogP> (7801560)
3.540000000000000e+000

>  <RB> (7801560)
5

>  <tPSA> (7801560)
1.147600000000000e+002

>  <Hacc> (7801560)
5

>  <Hdon> (7801560)
3

>  <LogSw> (7801560)
-6.221000000000000e+000

>  <Group> (7801560)
1

>  <Core> (7801560)
351

$$$$
7514290
  -ISIS-  03310818262D

 31 33  0  0  0  0  0  0  0  0999 V2000
    6.7500   -1.8292    0.0000 N   0  0  3  0  0  0  0  0  0  0  0  0
    7.4292   -1.3542    0.0000 C   0  0  0  0  0  0  0  0  0  0  0  0
    6.0792   -1.3417    0.0000 C   0  0  0  0  0  0  0  0  0  0  0  0
    7.1875   -0.5542    0.0000 N   0  0  0  0  0  0  0  0  0  0  0  0
    6.3542   -0.5500    0.0000 N   0  0  0  0  0  0  0  0  0  0  0  0
    9.7500   -4.2167    0.0000 C   0  0  0  0  0  0  0  0  0  0  0  0
    8.9042   -4.9667    0.0000 C   0  0  0  0  0  0  0  0  0  0  0  0
    3.9792   -1.0042    0.0000 C   0  0  0  0  0  0  0  0  0  0  0  0
    7.8250   -4.6042    0.0000 N   0  0  0  0  0  0  0  0  0  0  0  0
    3.5000   -0.3292    0.0000 C   0  0  0  0  0  0  0  0  0  0  0  0
    8.2167   -1.6167    0.0000 S   0  0  0  0  0  0  0  0  0  0  0  0
    7.5917   -3.4917    0.0000 C   0  0  0  0  0  0  0  0  0  0  0  0
    4.8125   -0.9167    0.0000 O   0  0  0  0  0  0  0  0  0  0  0  0
    2.6792   -0.4042    0.0000 C   0  0  0  0  0  0  0  0  0  0  0  0
    5.2917   -1.5917    0.0000 C   0  0  0  0  0  0  0  0  0  0  0  0
   10.8292   -4.5792    0.0000 C   0  0  0  0  0  0  0  0  0  0  0  0
    3.6417   -1.7542    0.0000 C   0  0  0  0  0  0  0  0  0  0  0  0
    6.5125   -3.1292    0.0000 O   0  0  0  0  0  0  0  0  0  0  0  0
    8.4417   -2.7292    0.0000 C   0  0  0  0  0  0  0  0  0  0  0  0
    9.5292   -3.1125    0.0000 Cl  0  0  0  0  0  0  0  0  0  0  0  0
    6.7417   -2.6625    0.0000 C   0  0  0  0  0  0  0  0  0  0  0  0
    3.8375    0.4250    0.0000 C   0  0  3  0  0  0  0  0  0  0  0  0
    2.3292   -1.1667    0.0000 C   0  0  0  0  0  0  0  0  0  0  0  0
    2.8125   -1.8417    0.0000 C   0  0  0  0  0  0  0  0  0  0  0  0
   11.6667   -3.8375    0.0000 Cl  0  0  0  0  0  0  0  0  0  0  0  0
    9.1250   -6.0750    0.0000 C   0  0  0  0  0  0  0  0  0  0  0  0
   10.2042   -6.4375    0.0000 C   0  0  0  0  0  0  0  0  0  0  0  0
   11.0417   -5.6875    0.0000 C   0  0  0  0  0  0  0  0  0  0  0  0
    4.6625    0.5083    0.0000 C   0  0  0  0  0  0  0  0  0  0  0  0
    3.3542    1.0958    0.0000 C   0  0  0  0  0  0  0  0  0  0  0  0
    2.4667   -2.5917    0.0000 C   0  0  0  0  0  0  0  0  0  0  0  0
  2  1  1  0  0  0  0
  3  1  1  0  0  0  0
  4  2  2  0  0  0  0
  5  3  2  0  0  0  0
  6  7  2  0  0  0  0
  7  9  1  0  0  0  0
  8 13  1  0  0  0  0
  9 12  1  0  0  0  0
 10  8  2  0  0  0  0
 11  2  1  0  0  0  0
 12 19  1  0  0  0  0
 13 15  1  0  0  0  0
 14 10  1  0  0  0  0
 15  3  1  0  0  0  0
 16  6  1  0  0  0  0
 17  8  1  0  0  0  0
 18 12  2  0  0  0  0
 19 11  1  0  0  0  0
 20  6  1  0  0  0  0
 21  1  1  0  0  0  0
 22 10  1  0  0  0  0
 23 24  1  0  0  0  0
 24 17  2  0  0  0  0
 25 16  1  0  0  0  0
 26  7  1  0  0  0  0
 27 26  2  0  0  0  0
 28 27  1  0  0  0  0
 29 22  1  0  0  0  0
 30 22  1  0  0  0  0
 31 24  1  0  0  0  0
  5  4  1  0  0  0  0
 14 23  2  0  0  0  0
 28 16  2  0  0  0  0
M  END
>  <ID> (7514290)
7514290

>  <Supplier> (7514290)
ChemBridge

>  <clogP> (7514290)
4.153999999999997e+000

>  <RB> (7514290)
7

>  <tPSA> (7514290)
6.904000000000001e+001

>  <Hacc> (7514290)
5

>  <Hdon> (7514290)
1

>  <LogSw> (7514290)
-7.573000000000000e+000

>  <Group> (7514290)
1

>  <Core> (7514290)
009

$$$$
7514295
  -ISIS-  03310818262D

 28 30  0  0  0  0  0  0  0  0999 V2000
    1.5167   -9.0167    0.0000 C   0  0  0  0  0  0  0  0  0  0  0  0
    1.6875   -9.7625    0.0000 C   0  0  0  0  0  0  0  0  0  0  0  0
    4.7667   -6.2875    0.0000 N   0  0  3  0  0  0  0  0  0  0  0  0
    2.4917   -7.2917    0.0000 C   0  0  0  0  0  0  0  0  0  0  0  0
    1.9292   -7.7917    0.0000 C   0  0  0  0  0  0  0  0  0  0  0  0
    5.5042   -6.1250    0.0000 N   0  0  0  0  0  0  0  0  0  0  0  0
    2.0792   -8.5250    0.0000 N   0  0  0  0  0  0  0  0  0  0  0  0
    3.2000   -7.5292    0.0000 O   0  0  0  0  0  0  0  0  0  0  0  0
    4.3917   -5.6292    0.0000 C   0  0  0  0  0  0  0  0  0  0  0  0
    1.1292  -10.2875    0.0000 C   0  0  0  0  0  0  0  0  0  0  0  0
    3.6417   -6.9292    0.0000 C   0  0  0  0  0  0  0  0  0  0  0  0
    0.7792   -8.7917    0.0000 C   0  0  0  0  0  0  0  0  0  0  0  0
    4.8917   -5.0750    0.0000 C   0  0  0  0  0  0  0  0  0  0  0  0
    2.5000   -6.5500    0.0000 C   0  0  0  0  0  0  0  0  0  0  0  0
    5.5792   -5.3792    0.0000 C   0  0  0  0  0  0  0  0  0  0  0  0
    0.3917  -10.0667    0.0000 C   0  0  0  0  0  0  0  0  0  0  0  0
    0.2250   -9.3167    0.0000 C   0  0  0  0  0  0  0  0  0  0  0  0
    3.2125   -6.3250    0.0000 C   0  0  0  0  0  0  0  0  0  0  0  0
    4.3917   -6.9292    0.0000 C   0  0  0  0  0  0  0  0  0  0  0  0
    2.4042   -9.9792    0.0000 C   0  0  0  0  0  0  0  0  0  0  0  0
    1.2167   -7.5542    0.0000 O   0  0  0  0  0  0  0  0  0  0  0  0
    2.9542   -9.4667    0.0000 O   0  0  0  0  0  0  0  0  0  0  0  0
    4.7417   -4.3292    0.0000 Cl  0  0  0  0  0  0  0  0  0  0  0  0
   -0.1500  -10.5792    0.0000 O   0  0  0  0  0  0  0  0  0  0  0  0
   -0.4958   -9.1042    0.0000 O   0  0  0  0  0  0  0  0  0  0  0  0
    2.5750  -10.7125    0.0000 C   0  0  0  0  0  0  0  0  0  0  0  0
   -0.8708  -10.3625    0.0000 C   0  0  0  0  0  0  0  0  0  0  0  0
   -0.6625   -8.3667    0.0000 C   0  0  0  0  0  0  0  0  0  0  0  0
  2  1  2  0  0  0  0
  3 19  1  0  0  0  0
  4  5  1  0  0  0  0
  5  7  1  0  0  0  0
  6  3  1  0  0  0  0
  7  1  1  0  0  0  0
  8  4  1  0  0  0  0
  9  3  1  0  0  0  0
 10  2  1  0  0  0  0
 11  8  1  0  0  0  0
 12  1  1  0  0  0  0
 13  9  2  0  0  0  0
 14  4  2  0  0  0  0
 15  6  2  0  0  0  0
 16 17  1  0  0  0  0
 17 12  2  0  0  0  0
 18 14  1  0  0  0  0
 19 11  1  0  0  0  0
 20  2  1  0  0  0  0
 21  5  2  0  0  0  0
 22 20  2  0  0  0  0
 23 13  1  0  0  0  0
 24 16  1  0  0  0  0
 25 17  1  0  0  0  0
 26 20  1  0  0  0  0
 27 24  1  0  0  0  0
 28 25  1  0  0  0  0
 16 10  2  0  0  0  0
 11 18  2  0  0  0  0
 15 13  1  0  0  0  0
M  END
>  <ID> (7514295)
7514295

>  <Supplier> (7514295)
ChemBridge

>  <clogP> (7514295)
2.662000000000000e+000

>  <RB> (7514295)
5

>  <tPSA> (7514295)
9.559000000000000e+001

>  <Hacc> (7514295)
6

>  <Hdon> (7514295)
1

>  <LogSw> (7514295)
-4.596000000000000e+000

>  <Group> (7514295)
3

$$$$
7934673
  -ISIS-  03310818272D

 31 32  0  0  0  0  0  0  0  0999 V2000
    1.9417    1.9875    0.0000 S   0  0  3  0  0  0  0  0  0  0  0  0
    2.6917    1.9875    0.0000 C   0  0  0  0  0  0  0  0  0  0  0  0
    1.7417    2.7125    0.0000 N   0  0  0  0  0  0  0  0  0  0  0  0
    3.0667    1.3375    0.0000 C   0  0  0  0  0  0  0  0  0  0  0  0
    3.8167    1.3375    0.0000 C   0  0  0  0  0  0  0  0  0  0  0  0
    1.2042    1.8583    0.0000 O   0  0  0  0  0  0  0  0  0  0  0  0
    2.0042    1.2375    0.0000 O   0  0  0  0  0  0  0  0  0  0  0  0
    9.4417    3.2833    0.0000 C   0  0  0  0  0  0  0  0  0  0  0  0
    6.0667    2.6458    0.0000 C   0  0  0  0  0  0  0  0  0  0  0  0
    4.1917    1.9875    0.0000 C   0  0  0  0  0  0  0  0  0  0  0  0
    9.8167    3.9333    0.0000 C   0  0  0  0  0  0  0  0  0  0  0  0
    4.9417    1.9875    0.0000 O   0  0  0  0  0  0  0  0  0  0  0  0
    8.6917    3.2833    0.0000 C   0  0  0  0  0  0  0  0  0  0  0  0
    3.0667    2.6458    0.0000 C   0  0  0  0  0  0  0  0  0  0  0  0
    6.4417    1.9875    0.0000 O   0  0  0  0  0  0  0  0  0  0  0  0
    3.8167    2.6458    0.0000 C   0  0  0  0  0  0  0  0  0  0  0  0
    9.4417    4.5792    0.0000 C   0  0  0  0  0  0  0  0  0  0  0  0
    6.4417    3.2833    0.0000 N   0  0  0  0  0  0  0  0  0  0  0  0
    5.3167    2.6458    0.0000 C   0  0  0  0  0  0  0  0  0  0  0  0
    4.1917    0.6875    0.0000 Cl  0  0  0  0  0  0  0  0  0  0  0  0
    8.3167    3.9333    0.0000 C   0  0  0  0  0  0  0  0  0  0  0  0
    8.6917    4.5792    0.0000 C   0  0  0  0  0  0  0  0  0  0  0  0
    9.8167    2.6458    0.0000 O   0  0  0  0  0  0  0  0  0  0  0  0
   10.5667    3.9333    0.0000 O   0  0  0  0  0  0  0  0  0  0  0  0
    7.1917    3.2833    0.0000 C   0  0  0  0  0  0  0  0  0  0  0  0
    1.0167    2.9083    0.0000 C   0  0  3  0  0  0  0  0  0  0  0  0
    7.5667    3.9333    0.0000 C   0  0  0  0  0  0  0  0  0  0  0  0
    9.4417    1.9875    0.0000 C   0  0  0  0  0  0  0  0  0  0  0  0
   10.9417    4.5792    0.0000 C   0  0  0  0  0  0  0  0  0  0  0  0
    0.8292    3.6333    0.0000 C   0  0  0  0  0  0  0  0  0  0  0  0
    0.4917    2.3750    0.0000 C   0  0  0  0  0  0  0  0  0  0  0  0
  2  1  1  0  0  0  0
  3  1  1  0  0  0  0
  4  2  2  0  0  0  0
  5  4  1  0  0  0  0
  6  1  2  0  0  0  0
  7  1  2  0  0  0  0
  8 13  1  0  0  0  0
  9 19  1  0  0  0  0
 10 16  1  0  0  0  0
 11 17  1  0  0  0  0
 12 10  1  0  0  0  0
 13 21  2  0  0  0  0
 14  2  1  0  0  0  0
 15  9  2  0  0  0  0
 16 14  2  0  0  0  0
 17 22  2  0  0  0  0
 18  9  1  0  0  0  0
 19 12  1  0  0  0  0
 20  5  1  0  0  0  0
 21 27  1  0  0  0  0
 22 21  1  0  0  0  0
 23  8  1  0  0  0  0
 24 11  1  0  0  0  0
 25 18  1  0  0  0  0
 26  3  1  0  0  0  0
 27 25  1  0  0  0  0
 28 23  1  0  0  0  0
 29 24  1  0  0  0  0
 30 26  1  0  0  0  0
 31 26  1  0  0  0  0
  5 10  2  0  0  0  0
 11  8  2  0  0  0  0
M  END
>  <ID> (7934673)
7934673

>  <Supplier> (7934673)
ChemBridge

>  <clogP> (7934673)
3.234000000000000e+000

>  <RB> (7934673)
7

>  <tPSA> (7934673)
1.029600000000000e+002

>  <Hacc> (7934673)
7

>  <Hdon> (7934673)
2

>  <LogSw> (7934673)
-5.395000000000000e+000

>  <Group> (7934673)
1

>  <Core> (7934673)
315

$$$$
5175669
  -ISIS-  03310818212D

 28 31  0  0  0  0  0  0  0  0999 V2000
   -0.1208    2.2208    0.0000 C   0  0  3  0  0  0  0  0  0  0  0  0
    0.3167    2.7083    0.0000 N   0  0  3  0  0  0  0  0  0  0  0  0
   -0.7458    2.4625    0.0000 N   0  0  3  0  0  0  0  0  0  0  0  0
   -0.6833    3.1208    0.0000 C   0  0  0  0  0  0  0  0  0  0  0  0
   -0.0458    3.3000    0.0000 C   0  0  0  0  0  0  0  0  0  0  0  0
   -0.0458    1.5625    0.0000 C   0  0  0  0  0  0  0  0  0  0  0  0
    0.9542    2.8833    0.0000 C   0  0  0  0  0  0  0  0  0  0  0  0
   -1.3625    2.3125    0.0000 C   0  0  0  0  0  0  0  0  0  0  0  0
    0.1000    0.2125    0.0000 C   0  0  0  0  0  0  0  0  0  0  0  0
    0.1542   -0.4500    0.0000 N   0  0  3  0  0  0  0  0  0  0  0  0
    0.5792    1.2958    0.0000 C   0  0  0  0  0  0  0  0  0  0  0  0
   -0.5833    1.1458    0.0000 C   0  0  0  0  0  0  0  0  0  0  0  0
    0.6792    0.6333    0.0000 C   0  0  0  0  0  0  0  0  0  0  0  0
   -0.5000    0.4833    0.0000 C   0  0  0  0  0  0  0  0  0  0  0  0
    0.7542   -0.7500    0.0000 C   0  0  0  0  0  0  0  0  0  0  0  0
   -0.4000   -0.8042    0.0000 C   0  0  0  0  0  0  0  0  0  0  0  0
    1.1542    3.4833    0.0000 C   0  0  0  0  0  0  0  0  0  0  0  0
   -1.5458    1.6833    0.0000 C   0  0  0  0  0  0  0  0  0  0  0  0
    1.4167    2.4000    0.0000 C   0  0  0  0  0  0  0  0  0  0  0  0
   -1.8208    2.7958    0.0000 C   0  0  0  0  0  0  0  0  0  0  0  0
    0.8167   -1.3792    0.0000 C   0  0  0  0  0  0  0  0  0  0  0  0
   -1.0000   -0.5375    0.0000 C   0  0  0  0  0  0  0  0  0  0  0  0
    1.8000    3.6708    0.0000 C   0  0  0  0  0  0  0  0  0  0  0  0
   -2.1833    1.5000    0.0000 C   0  0  0  0  0  0  0  0  0  0  0  0
   -2.4625    2.6125    0.0000 C   0  0  0  0  0  0  0  0  0  0  0  0
    2.0375    2.5208    0.0000 C   0  0  0  0  0  0  0  0  0  0  0  0
   -2.6458    1.9833    0.0000 C   0  0  0  0  0  0  0  0  0  0  0  0
    2.2375    3.1500    0.0000 C   0  0  0  0  0  0  0  0  0  0  0  0
  2  1  1  0  0  0  0
  3  1  1  0  0  0  0
  4  3  1  0  0  0  0
  5  2  1  0  0  0  0
  6  1  1  0  0  0  0
  7  2  1  0  0  0  0
  8  3  1  0  0  0  0
  9 14  1  0  0  0  0
 10  9  1  0  0  0  0
 11  6  2  0  0  0  0
 12  6  1  0  0  0  0
 13 11  1  0  0  0  0
 14 12  2  0  0  0  0
 15 10  1  0  0  0  0
 16 10  1  0  0  0  0
 17  7  2  0  0  0  0
 18  8  2  0  0  0  0
 19  7  1  0  0  0  0
 20  8  1  0  0  0  0
 21 15  1  0  0  0  0
 22 16  1  0  0  0  0
 23 17  1  0  0  0  0
 24 18  1  0  0  0  0
 25 20  2  0  0  0  0
 26 19  2  0  0  0  0
 27 25  1  0  0  0  0
 28 26  1  0  0  0  0
  4  5  1  0  0  0  0
  9 13  2  0  0  0  0
 27 24  2  0  0  0  0
 28 23  2  0  0  0  0
M  END
>  <ID> (5175669)
5175669

>  <Supplier> (5175669)
ChemBridge

>  <clogP> (5175669)
7.260000000000000e+000

>  <RB> (5175669)
3

>  <tPSA> (5175669)
9.720000000000001e+000

>  <Hacc> (5175669)
0

>  <Hdon> (5175669)
0

>  <LogSw> (5175669)
-8.109000000000000e+000

>  <Group> (5175669)
3

>  <Core> (5175669)
397

$$$$
5477838
  -ISIS-  03310818222D

 28 32  0  0  0  0  0  0  0  0999 V2000
   -1.2500    0.9125    0.0000 C   0  0  0  0  0  0  0  0  0  0  0  0
   -1.2500   -0.0042    0.0000 C   0  0  0  0  0  0  0  0  0  0  0  0
   -2.0500    1.3708    0.0000 C   0  0  0  0  0  0  0  0  0  0  0  0
   -0.4708    1.3708    0.0000 C   0  0  0  0  0  0  0  0  0  0  0  0
   -0.4708   -0.4667    0.0000 C   0  0  0  0  0  0  0  0  0  0  0  0
   -2.0500   -0.4667    0.0000 C   0  0  0  0  0  0  0  0  0  0  0  0
   -0.4708    2.2958    0.0000 N   0  0  0  0  0  0  0  0  0  0  0  0
   -2.0500    2.2958    0.0000 O   0  0  0  0  0  0  0  0  0  0  0  0
    0.3500   -0.0042    0.0000 C   0  0  0  0  0  0  0  0  0  0  0  0
    0.3500    0.9125    0.0000 C   0  0  0  0  0  0  0  0  0  0  0  0
   -2.8500    0.9125    0.0000 C   0  0  0  0  0  0  0  0  0  0  0  0
   -2.8500   -0.0042    0.0000 C   0  0  0  0  0  0  0  0  0  0  0  0
   -0.4833   -1.4042    0.0000 N   0  0  0  0  0  0  0  0  0  0  0  0
   -2.0500   -1.3875    0.0000 O   0  0  0  0  0  0  0  0  0  0  0  0
    1.1500    1.3958    0.0000 N   0  0  3  0  0  0  0  0  0  0  0  0
    0.5667   -1.4042    0.0000 C   0  0  0  0  0  0  0  0  0  0  0  0
    2.4875   -1.3875    0.0000 C   0  0  0  0  0  0  0  0  0  0  0  0
   -3.6333    1.3708    0.0000 C   0  0  0  0  0  0  0  0  0  0  0  0
    1.0375   -2.2042    0.0000 C   0  0  0  0  0  0  0  0  0  0  0  0
    1.0375   -0.5500    0.0000 C   0  0  0  0  0  0  0  0  0  0  0  0
   -3.6333   -0.4667    0.0000 C   0  0  0  0  0  0  0  0  0  0  0  0
    2.0000   -0.5500    0.0000 C   0  0  0  0  0  0  0  0  0  0  0  0
    2.0000   -2.2042    0.0000 C   0  0  0  0  0  0  0  0  0  0  0  0
    1.9500    0.9333    0.0000 C   0  0  0  0  0  0  0  0  0  0  0  0
    3.4375   -1.3875    0.0000 C   0  0  0  0  0  0  0  0  0  0  0  0
   -4.4333    0.9125    0.0000 C   0  0  0  0  0  0  0  0  0  0  0  0
   -4.4333   -0.0042    0.0000 C   0  0  0  0  0  0  0  0  0  0  0  0
    1.1500    2.3125    0.0000 H   0  0  0  0  0  0  0  0  0  0  0  0
  2  1  1  0  0  0  0
  3  1  2  0  0  0  0
  4  1  1  0  0  0  0
  5  2  2  0  0  0  0
  6  2  1  0  0  0  0
  7  4  2  0  0  0  0
  8  3  1  0  0  0  0
  9 10  2  0  0  0  0
 10  4  1  0  0  0  0
 11  3  1  0  0  0  0
 12 11  2  0  0  0  0
 13  5  1  0  0  0  0
 14  6  2  0  0  0  0
 15 10  1  0  0  0  0
 16 13  1  0  0  0  0
 17 22  1  0  0  0  0
 18 11  1  0  0  0  0
 19 16  2  0  0  0  0
 20 16  1  0  0  0  0
 21 12  1  0  0  0  0
 22 20  2  0  0  0  0
 23 19  1  0  0  0  0
 24 15  1  0  0  0  0
 25 17  1  0  0  0  0
 26 18  2  0  0  0  0
 27 26  1  0  0  0  0
 28 15  1  0  0  0  0
  7  8  1  0  0  0  0
  9  5  1  0  0  0  0
 12  6  1  0  0  0  0
 21 27  2  0  0  0  0
 17 23  2  0  0  0  0
M  END
>  <ID> (5477838)
5477838

>  <Supplier> (5477838)
ChemBridge

>  <clogP> (5477838)
5.710000000000000e+000

>  <RB> (5477838)
2

>  <tPSA> (5477838)
6.716000000000000e+001

>  <Hacc> (5477838)
3

>  <Hdon> (5477838)
2

>  <LogSw> (5477838)
-7.778000000000001e+000

>  <Group> (5477838)
3

>  <Core> (5477838)
214

$$$$
7784175
  -ISIS-  03310818272D

 26 28  0  0  0  0  0  0  0  0999 V2000
    2.4250   -0.8375    0.0000 C   0  0  0  0  0  0  0  0  0  0  0  0
    1.9792   -0.2292    0.0000 N   0  0  0  0  0  0  0  0  0  0  0  0
    3.5500   -1.4875    0.0000 C   0  0  0  0  0  0  0  0  0  0  0  0
    4.3000   -1.4875    0.0000 N   0  0  0  0  0  0  0  0  0  0  0  0
    3.1750   -0.8375    0.0000 N   0  0  0  0  0  0  0  0  0  0  0  0
    1.2625   -0.4625    0.0000 C   0  0  0  0  0  0  0  0  0  0  0  0
    4.6750   -2.1375    0.0000 C   0  0  0  0  0  0  0  0  0  0  0  0
    1.9792   -1.4417    0.0000 S   0  0  0  0  0  0  0  0  0  0  0  0
    5.4250   -2.1375    0.0000 C   0  0  0  0  0  0  0  0  0  0  0  0
    1.2625   -1.2167    0.0000 C   0  0  0  0  0  0  0  0  0  0  0  0
    3.1750   -2.1375    0.0000 S   0  0  0  0  0  0  0  0  0  0  0  0
    0.6542   -0.0167    0.0000 C   0  0  0  0  0  0  0  0  0  0  0  0
    5.8000   -2.7875    0.0000 C   0  0  0  0  0  0  0  0  0  0  0  0
    5.8000   -1.4875    0.0000 C   0  0  0  0  0  0  0  0  0  0  0  0
    4.3000   -2.7875    0.0000 O   0  0  0  0  0  0  0  0  0  0  0  0
    6.5500   -2.7875    0.0000 C   0  0  0  0  0  0  0  0  0  0  0  0
    6.5500   -1.4875    0.0000 C   0  0  0  0  0  0  0  0  0  0  0  0
    0.7292    0.7250    0.0000 C   0  0  0  0  0  0  0  0  0  0  0  0
   -0.0333   -0.3250    0.0000 C   0  0  0  0  0  0  0  0  0  0  0  0
    6.9250   -2.1375    0.0000 C   0  0  0  0  0  0  0  0  0  0  0  0
   -0.5583    0.8625    0.0000 C   0  0  0  0  0  0  0  0  0  0  0  0
   -0.6333    0.1208    0.0000 C   0  0  0  0  0  0  0  0  0  0  0  0
    0.1292    1.1708    0.0000 C   0  0  0  0  0  0  0  0  0  0  0  0
   -1.1625    1.3083    0.0000 Cl  0  0  0  0  0  0  0  0  0  0  0  0
    6.9250   -3.4292    0.0000 C   0  0  0  0  0  0  0  0  0  0  0  0
    6.9250   -0.8375    0.0000 C   0  0  0  0  0  0  0  0  0  0  0  0
  2  1  2  0  0  0  0
  3  5  1  0  0  0  0
  4  3  1  0  0  0  0
  5  1  1  0  0  0  0
  6  2  1  0  0  0  0
  7  4  1  0  0  0  0
  8  1  1  0  0  0  0
  9  7  1  0  0  0  0
 10  8  1  0  0  0  0
 11  3  2  0  0  0  0
 12  6  1  0  0  0  0
 13  9  1  0  0  0  0
 14  9  2  0  0  0  0
 15  7  2  0  0  0  0
 16 13  2  0  0  0  0
 17 14  1  0  0  0  0
 18 12  1  0  0  0  0
 19 12  2  0  0  0  0
 20 17  2  0  0  0  0
 21 22  2  0  0  0  0
 22 19  1  0  0  0  0
 23 18  2  0  0  0  0
 24 21  1  0  0  0  0
 25 16  1  0  0  0  0
 26 17  1  0  0  0  0
  6 10  2  0  0  0  0
 23 21  1  0  0  0  0
 16 20  1  0  0  0  0
M  END
>  <ID> (7784175)
7784175

>  <Supplier> (7784175)
ChemBridge

>  <clogP> (7784175)
5.770000000000001e+000

>  <RB> (7784175)
3

>  <tPSA> (7784175)
5.402000000000000e+001

>  <Hacc> (7784175)
2

>  <Hdon> (7784175)
2

>  <LogSw> (7784175)
-7.058000000000000e+000

>  <Group> (7784175)
1

>  <Core> (7784175)
227

$$$$
7784174
  -ISIS-  03310818272D

 29 32  0  0  0  0  0  0  0  0999 V2000
    7.7500   -0.8417    0.0000 C   0  0  0  0  0  0  0  0  0  0  0  0
    7.4292   -1.4792    0.0000 C   0  0  0  0  0  0  0  0  0  0  0  0
    8.4500   -0.9542    0.0000 O   0  0  0  0  0  0  0  0  0  0  0  0
    6.7292   -1.5917    0.0000 N   0  0  3  0  0  0  0  0  0  0  0  0
    7.9292   -1.9750    0.0000 C   0  0  0  0  0  0  0  0  0  0  0  0
    7.7000   -0.1417    0.0000 C   0  0  0  0  0  0  0  0  0  0  0  0
    6.3917   -2.2125    0.0000 C   0  0  0  0  0  0  0  0  0  0  0  0
    8.5625   -1.6542    0.0000 C   0  0  0  0  0  0  0  0  0  0  0  0
    8.2917    0.2500    0.0000 C   0  0  0  0  0  0  0  0  0  0  0  0
    5.6792   -2.2375    0.0000 C   0  0  0  0  0  0  0  0  0  0  0  0
    8.2417    0.9583    0.0000 C   0  0  0  0  0  0  0  0  0  0  0  0
    8.8292    1.3500    0.0000 C   0  0  0  0  0  0  0  0  0  0  0  0
    5.2417   -1.6750    0.0000 O   0  0  0  0  0  0  0  0  0  0  0  0
    7.0667    0.1750    0.0000 O   0  0  0  0  0  0  0  0  0  0  0  0
    6.7542   -2.8167    0.0000 O   0  0  0  0  0  0  0  0  0  0  0  0
    9.4667    1.0375    0.0000 C   0  0  0  0  0  0  0  0  0  0  0  0
    5.2875   -2.8292    0.0000 C   0  0  0  0  0  0  0  0  0  0  0  0
    8.9250   -0.0625    0.0000 C   0  0  0  0  0  0  0  0  0  0  0  0
    4.5750   -1.9167    0.0000 C   0  0  0  0  0  0  0  0  0  0  0  0
    4.6000   -2.6292    0.0000 C   0  0  0  0  0  0  0  0  0  0  0  0
    9.5167    0.3333    0.0000 C   0  0  0  0  0  0  0  0  0  0  0  0
    8.7792    2.0583    0.0000 Cl  0  0  0  0  0  0  0  0  0  0  0  0
    7.8875   -2.6792    0.0000 C   0  0  0  0  0  0  0  0  0  0  0  0
   10.0542    1.4333    0.0000 O   0  0  0  0  0  0  0  0  0  0  0  0
    9.1500   -2.0417    0.0000 C   0  0  0  0  0  0  0  0  0  0  0  0
   10.6917    1.1208    0.0000 C   0  0  0  0  0  0  0  0  0  0  0  0
    8.4792   -3.0667    0.0000 C   0  0  0  0  0  0  0  0  0  0  0  0
    9.1167   -2.7417    0.0000 C   0  0  0  0  0  0  0  0  0  0  0  0
    6.4375   -0.9500    0.0000 H   0  0  0  0  0  0  0  0  0  0  0  0
  2  1  2  0  0  0  0
  3  1  1  0  0  0  0
  4  2  1  0  0  0  0
  5  2  1  0  0  0  0
  6  1  1  0  0  0  0
  7  4  1  0  0  0  0
  8  3  1  0  0  0  0
  9  6  1  0  0  0  0
 10  7  1  0  0  0  0
 11  9  1  0  0  0  0
 12 11  2  0  0  0  0
 13 10  1  0  0  0  0
 14  6  2  0  0  0  0
 15  7  2  0  0  0  0
 16 21  2  0  0  0  0
 17 10  2  0  0  0  0
 18  9  2  0  0  0  0
 19 13  1  0  0  0  0
 20 17  1  0  0  0  0
 21 18  1  0  0  0  0
 22 12  1  0  0  0  0
 23  5  1  0  0  0  0
 24 16  1  0  0  0  0
 25  8  1  0  0  0  0
 26 24  1  0  0  0  0
 27 23  2  0  0  0  0
 28 25  2  0  0  0  0
 29  4  1  0  0  0  0
  8  5  2  0  0  0  0
 27 28  1  0  0  0  0
 12 16  1  0  0  0  0
 20 19  2  0  0  0  0
M  END
>  <ID> (7784174)
7784174

>  <Supplier> (7784174)
ChemBridge

>  <clogP> (7784174)
4.890000000000000e+000

>  <RB> (7784174)
4

>  <tPSA> (7784174)
8.168000000000001e+001

>  <Hacc> (7784174)
5

>  <Hdon> (7784174)
1

>  <LogSw> (7784174)
-6.261000000000000e+000

>  <Group> (7784174)
1

$$$$
7784177
  -ISIS-  03310818272D

 31 34  0  0  0  0  0  0  0  0999 V2000
    1.7792   -0.9500    0.0000 C   0  0  3  0  0  0  0  0  0  0  0  0
    2.2667   -1.6167    0.0000 S   0  0  0  0  0  0  0  0  0  0  0  0
    3.0625   -1.3417    0.0000 C   0  0  0  0  0  0  0  0  0  0  0  0
    2.2667   -0.2667    0.0000 N   0  0  3  0  0  0  0  0  0  0  0  0
    1.2917   -1.6125    0.0000 N   0  0  3  0  0  0  0  0  0  0  0  0
    3.0625   -0.5292    0.0000 N   0  0  0  0  0  0  0  0  0  0  0  0
    1.3042   -0.2667    0.0000 S   0  0  0  0  0  0  0  0  0  0  0  0
    0.5125   -0.5292    0.0000 C   0  0  0  0  0  0  0  0  0  0  0  0
    0.5042   -1.3417    0.0000 C   0  0  0  0  0  0  0  0  0  0  0  0
    3.7250   -1.8167    0.0000 C   0  0  0  0  0  0  0  0  0  0  0  0
    2.0042    0.5208    0.0000 C   0  0  0  0  0  0  0  0  0  0  0  0
   -0.1500   -0.0292    0.0000 C   0  0  0  0  0  0  0  0  0  0  0  0
    1.5417   -2.4042    0.0000 C   0  0  0  0  0  0  0  0  0  0  0  0
    3.6417   -2.6500    0.0000 O   0  0  0  0  0  0  0  0  0  0  0  0
   -0.0583    0.7875    0.0000 O   0  0  0  0  0  0  0  0  0  0  0  0
    2.5625    1.1333    0.0000 C   0  0  0  0  0  0  0  0  0  0  0  0
    1.2000    0.6708    0.0000 C   0  0  0  0  0  0  0  0  0  0  0  0
   -0.1750   -1.8167    0.0000 C   0  0  0  0  0  0  0  0  0  0  0  0
    4.4667   -1.4792    0.0000 O   0  0  0  0  0  0  0  0  0  0  0  0
    1.5000    2.0833    0.0000 C   0  0  0  0  0  0  0  0  0  0  0  0
    0.9417    1.4500    0.0000 C   0  0  0  0  0  0  0  0  0  0  0  0
    2.3042    1.9083    0.0000 C   0  0  0  0  0  0  0  0  0  0  0  0
    1.2792    2.8833    0.0000 Cl  0  0  0  0  0  0  0  0  0  0  0  0
   -0.9000   -0.3667    0.0000 C   0  0  0  0  0  0  0  0  0  0  0  0
    0.9792   -3.0042    0.0000 C   0  0  0  0  0  0  0  0  0  0  0  0
    2.3417   -2.5792    0.0000 C   0  0  0  0  0  0  0  0  0  0  0  0
    5.1417   -1.9542    0.0000 C   0  0  0  0  0  0  0  0  0  0  0  0
    5.8917   -1.6167    0.0000 C   0  0  0  0  0  0  0  0  0  0  0  0
    2.6000   -3.3667    0.0000 C   0  0  0  0  0  0  0  0  0  0  0  0
    1.2167   -3.8000    0.0000 C   0  0  0  0  0  0  0  0  0  0  0  0
    2.0375   -3.9792    0.0000 C   0  0  0  0  0  0  0  0  0  0  0  0
  2  1  1  0  0  0  0
  3  2  1  0  0  0  0
  4  1  1  0  0  0  0
  5  1  1  0  0  0  0
  6  4  1  0  0  0  0
  7  1  1  0  0  0  0
  8  7  1  0  0  0  0
  9  5  1  0  0  0  0
 10  3  1  0  0  0  0
 11  4  1  0  0  0  0
 12  8  1  0  0  0  0
 13  5  1  0  0  0  0
 14 10  2  0  0  0  0
 15 12  2  0  0  0  0
 16 11  2  0  0  0  0
 17 11  1  0  0  0  0
 18  9  1  0  0  0  0
 19 10  1  0  0  0  0
 20 21  1  0  0  0  0
 21 17  2  0  0  0  0
 22 16  1  0  0  0  0
 23 20  1  0  0  0  0
 24 12  1  0  0  0  0
 25 13  2  0  0  0  0
 26 13  1  0  0  0  0
 27 19  1  0  0  0  0
 28 27  1  0  0  0  0
 29 26  2  0  0  0  0
 30 25  1  0  0  0  0
 31 29  1  0  0  0  0
  8  9  2  0  0  0  0
  3  6  2  0  0  0  0
 22 20  2  0  0  0  0
 30 31  2  0  0  0  0
M  END
>  <ID> (7784177)
7784177

>  <Supplier> (7784177)
ChemBridge

>  <clogP> (7784177)
5.900000000000000e+000

>  <RB> (7784177)
4

>  <tPSA> (7784177)
6.221000000000000e+001

>  <Hacc> (7784177)
4

>  <Hdon> (7784177)
0

>  <LogSw> (7784177)
-7.693000000000000e+000

>  <Group> (7784177)
1

$$$$
7784171
  -ISIS-  03310818272D

 27 28  0  0  0  0  0  0  0  0999 V2000
   14.7500   -0.7542    0.0000 N   0  3  0  0  0  0  0  0  0  0  0  0
    4.1250   -3.0917    0.0000 C   0  0  0  0  0  0  0  0  0  0  0  0
   -1.8000   -1.0417    0.0000 C   0  0  0  0  0  0  0  0  0  0  0  0
    0.5542   -1.0417    0.0000 N   0  0  0  0  0  0  0  0  0  0  0  0
   12.3792   -0.8500    0.0000 C   0  0  0  0  0  0  0  0  0  0  0  0
   -3.0000    1.0125    0.0000 C   0  0  0  0  0  0  0  0  0  0  0  0
    1.7542   -3.0917    0.0000 N   0  0  0  0  0  0  0  0  0  0  0  0
   16.0000   -2.7875    0.0000 O   0  5  0  0  0  0  0  0  0  0  0  0
    5.2625   -1.0375    0.0000 N   0  0  0  0  0  0  0  0  0  0  0  0
   15.8625    1.3083    0.0000 O   0  0  0  0  0  0  0  0  0  0  0  0
    5.3292   -5.1167    0.0000 S   0  0  0  0  0  0  0  0  0  0  0  0
   -3.0000   -3.0917    0.0000 O   0  0  0  0  0  0  0  0  0  0  0  0
   -5.4083    1.0125    0.0000 C   0  0  0  0  0  0  0  0  0  0  0  0
   11.2167   -2.9625    0.0000 C   0  0  0  0  0  0  0  0  0  0  0  0
   11.1250    1.1500    0.0000 C   0  0  0  0  0  0  0  0  0  0  0  0
    7.6292   -0.9875    0.0000 C   0  0  0  0  0  0  0  0  0  0  0  0
   -6.6042    3.0708    0.0000 C   0  0  0  0  0  0  0  0  0  0  0  0
    8.8917   -3.0292    0.0000 C   0  0  0  0  0  0  0  0  0  0  0  0
    8.7667    1.0708    0.0000 C   0  0  0  0  0  0  0  0  0  0  0  0
   -8.9542    3.0708    0.0000 O   0  0  0  0  0  0  0  0  0  0  0  0
   -1.8500    3.0708    0.0000 C   0  0  0  0  0  0  0  0  0  0  0  0
   -3.0000    5.1167    0.0000 C   0  0  0  0  0  0  0  0  0  0  0  0
   -5.4083    5.1167    0.0000 C   0  0  0  0  0  0  0  0  0  0  0  0
  -10.1292    1.0375    0.0000 C   0  0  0  0  0  0  0  0  0  0  0  0
  -12.4917    1.0375    0.0000 C   0  0  0  0  0  0  0  0  0  0  0  0
  -13.6667   -0.9917    0.0000 C   0  0  0  0  0  0  0  0  0  0  0  0
  -16.0000   -0.9917    0.0000 C   0  0  0  0  0  0  0  0  0  0  0  0
  2  9  1  0  0  0  0
  3  4  1  0  0  0  0
  4  7  1  0  0  0  0
  5  1  1  0  0  0  0
  6  3  1  0  0  0  0
  7  2  1  0  0  0  0
  8  1  1  0  0  0  0
  9 16  1  0  0  0  0
 10  1  2  0  0  0  0
 11  2  2  0  0  0  0
 12  3  2  0  0  0  0
 13  6  1  0  0  0  0
 14  5  1  0  0  0  0
 15  5  2  0  0  0  0
 16 19  2  0  0  0  0
 17 13  2  0  0  0  0
 18 14  2  0  0  0  0
 19 15  1  0  0  0  0
 20 17  1  0  0  0  0
 21  6  2  0  0  0  0
 22 21  1  0  0  0  0
 23 22  2  0  0  0  0
 24 20  1  0  0  0  0
 25 24  1  0  0  0  0
 26 25  1  0  0  0  0
 27 26  1  0  0  0  0
 16 18  1  0  0  0  0
 17 23  1  0  0  0  0
M  CHG  2   1   1   8  -1
M  END
>  <ID> (7784171)
7784171

>  <Supplier> (7784171)
ChemBridge

>  <clogP> (7784171)
2.900000000000000e+000

>  <RB> (7784171)
5

>  <tPSA> (7784171)
1.055300000000000e+002

>  <Hacc> (7784171)
4

>  <Hdon> (7784171)
3

>  <LogSw> (7784171)
-4.898000000000000e+000

>  <Group> (7784171)
1

>  <Core> (7784171)
444

$$$$
7784170
  -ISIS-  03310818272D

 20 21  0  0  0  0  0  0  0  0999 V2000
    8.6042   -3.4292    0.0000 C   0  0  0  0  0  0  0  0  0  0  0  0
    6.1417   -4.8542    0.0000 O   0  0  0  0  0  0  0  0  0  0  0  0
    3.6792   -3.4292    0.0000 C   0  0  0  0  0  0  0  0  0  0  0  0
    8.6042   -0.5875    0.0000 C   0  0  0  0  0  0  0  0  0  0  0  0
   11.0667   -4.8542    0.0000 C   0  0  0  0  0  0  0  0  0  0  0  0
    1.2167   -4.8625    0.0000 C   0  0  0  0  0  0  0  0  0  0  0  0
   11.0667    0.8333    0.0000 C   0  0  0  0  0  0  0  0  0  0  0  0
   13.5292   -3.4292    0.0000 C   0  0  0  0  0  0  0  0  0  0  0  0
    3.6792   -0.5917    0.0000 O   0  0  0  0  0  0  0  0  0  0  0  0
   13.5292   -0.5875    0.0000 C   0  0  0  0  0  0  0  0  0  0  0  0
   -1.2583   -3.4292    0.0000 C   0  0  0  0  0  0  0  0  0  0  0  0
    1.2167   -7.7167    0.0000 C   0  0  0  0  0  0  0  0  0  0  0  0
   16.0000    0.8333    0.0000 Br  0  0  0  0  0  0  0  0  0  0  0  0
   -3.7375   -7.7167    0.0000 C   0  0  0  0  0  0  0  0  0  0  0  0
   -1.2583   -9.1417    0.0000 C   0  0  0  0  0  0  0  0  0  0  0  0
   -3.7375   -4.8625    0.0000 C   0  0  0  0  0  0  0  0  0  0  0  0
   -6.2042   -9.1417    0.0000 O   0  0  0  0  0  0  0  0  0  0  0  0
   11.0667   -7.7000    0.0000 C   0  0  0  0  0  0  0  0  0  0  0  0
    6.1417    0.8333    0.0000 C   0  0  0  0  0  0  0  0  0  0  0  0
   -8.6792   -7.7167    0.0000 C   0  0  0  0  0  0  0  0  0  0  0  0
  2  1  1  0  0  0  0
  3  2  1  0  0  0  0
  4  1  1  0  0  0  0
  5  1  2  0  0  0  0
  6  3  1  0  0  0  0
  7  4  2  0  0  0  0
  8  5  1  0  0  0  0
  9  3  2  0  0  0  0
 10  8  2  0  0  0  0
 11  6  1  0  0  0  0
 12  6  2  0  0  0  0
 13 10  1  0  0  0  0
 14 15  2  0  0  0  0
 15 12  1  0  0  0  0
 16 11  2  0  0  0  0
 17 14  1  0  0  0  0
 18  5  1  0  0  0  0
 19  4  1  0  0  0  0
 20 17  1  0  0  0  0
  7 10  1  0  0  0  0
 16 14  1  0  0  0  0
M  END
>  <ID> (7784170)
7784170

>  <Supplier> (7784170)
ChemBridge

>  <clogP> (7784170)
5.790000000000000e+000

>  <RB> (7784170)
3

>  <tPSA> (7784170)
3.553000000000000e+001

>  <Hacc> (7784170)
3

>  <Hdon> (7784170)
0

>  <LogSw> (7784170)
-6.589000000000000e+000

>  <Group> (7784170)
1

>  <Core> (7784170)
266

$$$$
7784172
  -ISIS-  03310818272D

 29 30  0  0  0  0  0  0  0  0999 V2000
    5.9417   -7.2875    0.0000 S   0  0  3  0  0  0  0  0  0  0  0  0
    5.9667   -6.4625    0.0000 N   0  0  3  0  0  0  0  0  0  0  0  0
    5.2625   -6.0375    0.0000 C   0  0  0  0  0  0  0  0  0  0  0  0
    6.6792   -6.0500    0.0000 C   0  0  0  0  0  0  0  0  0  0  0  0
    7.4000   -6.4625    0.0000 C   0  0  0  0  0  0  0  0  0  0  0  0
    8.8250   -6.4542    0.0000 C   0  0  0  0  0  0  0  0  0  0  0  0
    8.1125   -6.0500    0.0000 N   0  0  0  0  0  0  0  0  0  0  0  0
    9.5375   -8.5167    0.0000 C   0  0  0  0  0  0  0  0  0  0  0  0
    9.5292   -7.6917    0.0000 C   0  0  0  0  0  0  0  0  0  0  0  0
    4.5417   -6.4417    0.0000 C   0  0  0  0  0  0  0  0  0  0  0  0
    8.8167   -7.2792    0.0000 C   0  0  0  0  0  0  0  0  0  0  0  0
    6.7667   -7.3167    0.0000 O   0  0  0  0  0  0  0  0  0  0  0  0
    6.3167   -8.0042    0.0000 O   0  0  0  0  0  0  0  0  0  0  0  0
    5.2750   -5.2125    0.0000 C   0  0  0  0  0  0  0  0  0  0  0  0
    9.5292   -6.0417    0.0000 C   0  0  0  0  0  0  0  0  0  0  0  0
    7.4000   -7.2875    0.0000 O   0  0  0  0  0  0  0  0  0  0  0  0
   10.2500   -8.9292    0.0000 O   0  0  0  0  0  0  0  0  0  0  0  0
   10.2500   -7.2792    0.0000 C   0  0  0  0  0  0  0  0  0  0  0  0
   10.2417   -6.4542    0.0000 C   0  0  0  0  0  0  0  0  0  0  0  0
    4.5667   -4.7917    0.0000 C   0  0  0  0  0  0  0  0  0  0  0  0
    3.8375   -6.0167    0.0000 C   0  0  0  0  0  0  0  0  0  0  0  0
    5.2167   -7.6792    0.0000 C   0  0  0  0  0  0  0  0  0  0  0  0
    8.8250   -8.9292    0.0000 O   0  0  0  0  0  0  0  0  0  0  0  0
    9.5250   -5.2250    0.0000 Cl  0  0  0  0  0  0  0  0  0  0  0  0
    3.8417   -5.1917    0.0000 C   0  0  0  0  0  0  0  0  0  0  0  0
    3.1167   -6.4292    0.0000 Cl  0  0  0  0  0  0  0  0  0  0  0  0
    5.9917   -4.8125    0.0000 O   0  0  0  0  0  0  0  0  0  0  0  0
    8.1042   -8.5167    0.0000 C   0  0  0  0  0  0  0  0  0  0  0  0
    6.0042   -3.9875    0.0000 C   0  0  0  0  0  0  0  0  0  0  0  0
  2  1  1  0  0  0  0
  3  2  1  0  0  0  0
  4  2  1  0  0  0  0
  5  4  1  0  0  0  0
  6  7  1  0  0  0  0
  7  5  1  0  0  0  0
  8  9  1  0  0  0  0
  9 11  1  0  0  0  0
 10  3  1  0  0  0  0
 11  6  2  0  0  0  0
 12  1  2  0  0  0  0
 13  1  2  0  0  0  0
 14  3  2  0  0  0  0
 15  6  1  0  0  0  0
 16  5  2  0  0  0  0
 17  8  2  0  0  0  0
 18 19  1  0  0  0  0
 19 15  2  0  0  0  0
 20 14  1  0  0  0  0
 21 10  2  0  0  0  0
 22  1  1  0  0  0  0
 23  8  1  0  0  0  0
 24 15  1  0  0  0  0
 25 20  2  0  0  0  0
 26 21  1  0  0  0  0
 27 14  1  0  0  0  0
 28 23  1  0  0  0  0
 29 27  1  0  0  0  0
 21 25  1  0  0  0  0
 18  9  2  0  0  0  0
M  END
>  <ID> (7784172)
7784172

>  <Supplier> (7784172)
ChemBridge

>  <clogP> (7784172)
3.410000000000000e+000

>  <RB> (7784172)
5

>  <tPSA> (7784172)
1.020100000000000e+002

>  <Hacc> (7784172)
6

>  <Hdon> (7784172)
1

>  <LogSw> (7784172)
-5.475000000000001e+000

>  <Group> (7784172)
1

>  <Core> (7784172)
084

$$$$
7784178
  -ISIS-  03310818272D

 21 22  0  0  0  0  0  0  0  0999 V2000
   -7.9917   -5.3667    0.0000 N   0  0  0  0  0  0  0  0  0  0  0  0
   -4.0083   -5.3667    0.0000 C   0  0  0  0  0  0  0  0  0  0  0  0
   -9.9667   -1.9375    0.0000 C   0  0  0  0  0  0  0  0  0  0  0  0
   -2.0458   -1.8792    0.0000 N   0  0  0  0  0  0  0  0  0  0  0  0
    3.9667    1.6500    0.0000 C   0  0  0  0  0  0  0  0  0  0  0  0
    7.9542    1.7208    0.0000 C   0  0  0  0  0  0  0  0  0  0  0  0
   -8.0042    1.5375    0.0000 N   0  0  0  0  0  0  0  0  0  0  0  0
   -2.0125   -8.6917    0.0000 S   0  0  0  0  0  0  0  0  0  0  0  0
    2.0167   -1.8375    0.0000 C   0  0  0  0  0  0  0  0  0  0  0  0
    9.9667   -1.7167    0.0000 C   0  0  0  0  0  0  0  0  0  0  0  0
  -13.9792   -1.9250    0.0000 C   0  0  0  0  0  0  0  0  0  0  0  0
    8.0667   -5.1542    0.0000 C   0  0  0  0  0  0  0  0  0  0  0  0
    4.0625   -5.2250    0.0000 C   0  0  0  0  0  0  0  0  0  0  0  0
    9.9250    5.2417    0.0000 O   0  0  0  0  0  0  0  0  0  0  0  0
   14.0292   -1.7167    0.0000 O   0  0  0  0  0  0  0  0  0  0  0  0
  -10.0000    4.9667    0.0000 C   0  0  0  0  0  0  0  0  0  0  0  0
  -15.9667   -5.3542    0.0000 C   0  0  0  0  0  0  0  0  0  0  0  0
  -16.0000    1.5250    0.0000 C   0  0  0  0  0  0  0  0  0  0  0  0
    7.8917    8.6917    0.0000 C   0  0  0  0  0  0  0  0  0  0  0  0
   16.0000   -5.2042    0.0000 C   0  0  0  0  0  0  0  0  0  0  0  0
  -14.0250    5.0125    0.0000 C   0  0  0  0  0  0  0  0  0  0  0  0
  2  1  1  0  0  0  0
  3  1  1  0  0  0  0
  4  2  1  0  0  0  0
  5  9  2  0  0  0  0
  6  5  1  0  0  0  0
  7  3  1  0  0  0  0
  8  2  2  0  0  0  0
  9  4  1  0  0  0  0
 10 12  1  0  0  0  0
 11  3  2  0  0  0  0
 12 13  2  0  0  0  0
 13  9  1  0  0  0  0
 14  6  1  0  0  0  0
 15 10  1  0  0  0  0
 16  7  2  0  0  0  0
 17 11  1  0  0  0  0
 18 11  1  0  0  0  0
 19 14  1  0  0  0  0
 20 15  1  0  0  0  0
 21 18  2  0  0  0  0
 16 21  1  0  0  0  0
  6 10  2  0  0  0  0
M  END
>  <ID> (7784178)
7784178

>  <Supplier> (7784178)
ChemBridge

>  <clogP> (7784178)
1.210000000000000e+000

>  <RB> (7784178)
2

>  <tPSA> (7784178)
5.541000000000000e+001

>  <Hacc> (7784178)
3

>  <Hdon> (7784178)
2

>  <LogSw> (7784178)
-2.446000000000000e+000

>  <Group> (7784178)
2

$$$$
9048285
  -ISIS-  03310818282D

 21 23  0  0  0  0  0  0  0  0999 V2000
    0.3417    3.8958    0.0000 S   0  0  3  0  0  0  0  0  0  0  0  0
   -0.3833    3.6958    0.0000 C   0  0  0  0  0  0  0  0  0  0  0  0
   -0.9708    4.1542    0.0000 C   0  0  0  0  0  0  0  0  0  0  0  0
   -1.4000    3.0333    0.0000 N   0  0  0  0  0  0  0  0  0  0  0  0
   -0.6500    2.9958    0.0000 C   0  0  0  0  0  0  0  0  0  0  0  0
   -1.5958    3.7583    0.0000 N   0  0  3  0  0  0  0  0  0  0  0  0
    0.7167    3.2375    0.0000 N   0  0  0  0  0  0  0  0  0  0  0  0
    2.5917    2.5875    0.0000 C   0  0  0  0  0  0  0  0  0  0  0  0
    1.0167    4.2000    0.0000 O   0  0  0  0  0  0  0  0  0  0  0  0
    0.0875    4.5875    0.0000 O   0  0  0  0  0  0  0  0  0  0  0  0
    1.8417    2.5875    0.0000 C   0  0  0  0  0  0  0  0  0  0  0  0
    1.4667    3.2375    0.0000 C   0  0  0  0  0  0  0  0  0  0  0  0
    2.9667    3.2375    0.0000 C   0  0  0  0  0  0  0  0  0  0  0  0
    2.9667    1.9375    0.0000 O   0  0  0  0  0  0  0  0  0  0  0  0
    3.7167    3.2375    0.0000 O   0  0  0  0  0  0  0  0  0  0  0  0
    2.5917    3.8958    0.0000 C   0  0  0  0  0  0  0  0  0  0  0  0
    1.8417    3.8958    0.0000 C   0  0  0  0  0  0  0  0  0  0  0  0
   -2.2958    4.0167    0.0000 C   0  0  0  0  0  0  0  0  0  0  0  0
    3.7167    1.9375    0.0000 C   0  0  0  0  0  0  0  0  0  0  0  0
    4.0917    2.5875    0.0000 C   0  0  0  0  0  0  0  0  0  0  0  0
   -2.8750    3.5583    0.0000 C   0  0  0  0  0  0  0  0  0  0  0  0
  2  1  1  0  0  0  0
  3  2  2  0  0  0  0
  4  5  2  0  0  0  0
  5  2  1  0  0  0  0
  6  3  1  0  0  0  0
  7  1  1  0  0  0  0
  8 11  2  0  0  0  0
  9  1  2  0  0  0  0
 10  1  2  0  0  0  0
 11 12  1  0  0  0  0
 12  7  1  0  0  0  0
 13 16  2  0  0  0  0
 14  8  1  0  0  0  0
 15 13  1  0  0  0  0
 16 17  1  0  0  0  0
 17 12  2  0  0  0  0
 18  6  1  0  0  0  0
 19 14  1  0  0  0  0
 20 15  1  0  0  0  0
 21 18  1  0  0  0  0
  4  6  1  0  0  0  0
 13  8  1  0  0  0  0
 20 19  1  0  0  0  0
M  END
>  <ID> (9048285)
9048285

>  <Supplier> (9048285)
ChemBridge

>  <clogP> (9048285)
1.797000000000000e+000

>  <RB> (9048285)
2

>  <tPSA> (9048285)
8.244999999999999e+001

>  <Hacc> (9048285)
5

>  <Hdon> (9048285)
1

>  <LogSw> (9048285)
-2.981000000000000e+000

>  <Group> (9048285)
2

>  <Core> (9048285)
297

$$$$
5160534
  -ISIS-  03310818212D

 22 24  0  0  0  0  0  0  0  0999 V2000
   -1.1458   -0.2000    0.0000 N   0  0  3  0  0  0  0  0  0  0  0  0
   -1.7125    0.4333    0.0000 C   0  0  0  0  0  0  0  0  0  0  0  0
   -1.5625   -0.9375    0.0000 C   0  0  0  0  0  0  0  0  0  0  0  0
   -2.5000    0.1000    0.0000 C   0  0  0  0  0  0  0  0  0  0  0  0
   -2.4125   -0.7542    0.0000 C   0  0  0  0  0  0  0  0  0  0  0  0
   -0.2708   -0.2042    0.0000 C   0  0  0  0  0  0  0  0  0  0  0  0
   -1.5208    1.2708    0.0000 O   0  0  0  0  0  0  0  0  0  0  0  0
   -1.1958   -1.7292    0.0000 O   0  0  0  0  0  0  0  0  0  0  0  0
   -3.2833    0.4458    0.0000 C   0  0  0  0  0  0  0  0  0  0  0  0
    2.7500    0.5458    0.0000 C   0  0  0  0  0  0  0  0  0  0  0  0
    2.3292   -0.2042    0.0000 O   0  0  0  0  0  0  0  0  0  0  0  0
    3.6042    0.6125    0.0000 O   0  0  0  0  0  0  0  0  0  0  0  0
    0.1500   -0.9500    0.0000 C   0  0  0  0  0  0  0  0  0  0  0  0
    0.1542    0.5208    0.0000 C   0  0  0  0  0  0  0  0  0  0  0  0
    1.4542   -0.2167    0.0000 C   0  0  0  0  0  0  0  0  0  0  0  0
   -3.1125   -1.2667    0.0000 C   0  0  0  0  0  0  0  0  0  0  0  0
   -3.3625    1.2958    0.0000 N   0  0  0  0  0  0  0  0  0  0  0  0
    1.0292    0.5208    0.0000 C   0  0  0  0  0  0  0  0  0  0  0  0
    1.0167   -0.9542    0.0000 C   0  0  0  0  0  0  0  0  0  0  0  0
   -3.9000   -0.9167    0.0000 C   0  0  0  0  0  0  0  0  0  0  0  0
   -3.9833   -0.0500    0.0000 C   0  0  0  0  0  0  0  0  0  0  0  0
    2.3667    1.3125    0.0000 C   0  0  0  0  0  0  0  0  0  0  0  0
  2  1  1  0  0  0  0
  3  1  1  0  0  0  0
  4  2  1  0  0  0  0
  5  3  1  0  0  0  0
  6  1  1  0  0  0  0
  7  2  2  0  0  0  0
  8  3  2  0  0  0  0
  9  4  2  0  0  0  0
 10 11  1  0  0  0  0
 11 15  1  0  0  0  0
 12 10  2  0  0  0  0
 13  6  2  0  0  0  0
 14  6  1  0  0  0  0
 15 18  1  0  0  0  0
 16  5  2  0  0  0  0
 17  9  1  0  0  0  0
 18 14  2  0  0  0  0
 19 13  1  0  0  0  0
 20 16  1  0  0  0  0
 21  9  1  0  0  0  0
 22 10  1  0  0  0  0
  4  5  1  0  0  0  0
 15 19  2  0  0  0  0
 21 20  2  0  0  0  0
M  END
>  <ID> (5160534)
5160534

>  <Supplier> (5160534)
ChemBridge

>  <clogP> (5160534)
1.190000000000000e+000

>  <RB> (5160534)
3

>  <tPSA> (5160534)
8.970000000000000e+001

>  <Hacc> (5160534)
4

>  <Hdon> (5160534)
1

>  <LogSw> (5160534)
-2.377000000000000e+000

>  <Group> (5160534)
3

$$$$
9149286
  -ISIS-  03310818292D

 18 18  0  0  0  0  0  0  0  0999 V2000
    3.8667    1.2500    0.0000 S   0  0  3  0  0  0  0  0  0  0  0  0
    4.5167    1.6250    0.0000 C   0  0  0  0  0  0  0  0  0  0  0  0
    3.2917    0.7708    0.0000 O   0  0  0  0  0  0  0  0  0  0  0  0
    4.3000    0.6333    0.0000 O   0  0  0  0  0  0  0  0  0  0  0  0
    3.3417    1.7833    0.0000 N   0  0  0  0  0  0  0  0  0  0  0  0
    5.1667    1.2500    0.0000 C   0  0  0  0  0  0  0  0  0  0  0  0
    4.5167    2.3750    0.0000 C   0  0  0  0  0  0  0  0  0  0  0  0
    2.6167    1.5875    0.0000 C   0  0  0  0  0  0  0  0  0  0  0  0
    1.3625    1.9208    0.0000 N   0  0  3  0  0  0  0  0  0  0  0  0
    5.8167    2.3750    0.0000 C   0  0  0  0  0  0  0  0  0  0  0  0
    5.1667    2.7500    0.0000 C   0  0  0  0  0  0  0  0  0  0  0  0
    5.8167    1.6250    0.0000 C   0  0  0  0  0  0  0  0  0  0  0  0
    6.4667    2.7500    0.0000 O   0  0  0  0  0  0  0  0  0  0  0  0
    2.0875    2.1208    0.0000 C   0  0  0  0  0  0  0  0  0  0  0  0
    0.8292    2.4583    0.0000 C   0  0  0  0  0  0  0  0  0  0  0  0
    1.1667    1.1958    0.0000 C   0  0  0  0  0  0  0  0  0  0  0  0
    7.1167    2.3750    0.0000 C   0  0  0  0  0  0  0  0  0  0  0  0
    7.7667    2.7500    0.0000 C   0  0  0  0  0  0  0  0  0  0  0  0
  2  1  1  0  0  0  0
  3  1  2  0  0  0  0
  4  1  2  0  0  0  0
  5  1  1  0  0  0  0
  6  2  2  0  0  0  0
  7  2  1  0  0  0  0
  8  5  1  0  0  0  0
  9 14  1  0  0  0  0
 10 11  1  0  0  0  0
 11  7  2  0  0  0  0
 12  6  1  0  0  0  0
 13 10  1  0  0  0  0
 14  8  1  0  0  0  0
 15  9  1  0  0  0  0
 16  9  1  0  0  0  0
 17 13  1  0  0  0  0
 18 17  1  0  0  0  0
 12 10  2  0  0  0  0
M  END
>  <ID> (9149286)
9149286

>  <Supplier> (9149286)
ChemBridge

>  <clogP> (9149286)
2.123000000000000e+000

>  <RB> (9149286)
3

>  <tPSA> (9149286)
5.863999999999997e+001

>  <Hacc> (9149286)
5

>  <Hdon> (9149286)
1

>  <LogSw> (9149286)
-1.992000000000000e+000

>  <Group> (9149286)
2

$$$$
9149288
  -ISIS-  03310818292D

 24 27  0  0  0  0  0  0  0  0999 V2000
    3.6250    2.7375    0.0000 C   0  0  0  0  0  0  0  0  0  0  0  0
    4.0000    2.0875    0.0000 N   0  0  0  0  0  0  0  0  0  0  0  0
    2.8750    2.7375    0.0000 C   0  0  0  0  0  0  0  0  0  0  0  0
    4.7500    2.0875    0.0000 C   0  0  0  0  0  0  0  0  0  0  0  0
    1.3750    2.7375    0.0000 N   0  0  0  0  0  0  0  0  0  0  0  0
    1.7500    2.0875    0.0000 C   0  0  0  0  0  0  0  0  0  0  0  0
    2.5000    2.0875    0.0000 C   0  0  0  0  0  0  0  0  0  0  0  0
    5.1875    1.4833    0.0000 N   0  0  0  0  0  0  0  0  0  0  0  0
    2.5000    3.3958    0.0000 C   0  0  0  0  0  0  0  0  0  0  0  0
    1.7500    3.3958    0.0000 C   0  0  0  0  0  0  0  0  0  0  0  0
    5.1875    2.6958    0.0000 S   0  0  0  0  0  0  0  0  0  0  0  0
    4.0000    3.3958    0.0000 O   0  0  0  0  0  0  0  0  0  0  0  0
    5.9042    1.7125    0.0000 C   0  0  0  0  0  0  0  0  0  0  0  0
    5.9042    2.4625    0.0000 C   0  0  0  0  0  0  0  0  0  0  0  0
    1.3750    1.4458    0.0000 C   0  0  0  0  0  0  0  0  0  0  0  0
    0.6250    0.1458    0.0000 N   0  0  0  0  0  0  0  0  0  0  0  0
    2.8750    4.0292    0.0000 C   0  0  0  0  0  0  0  0  0  0  0  0
    1.3750    4.0292    0.0000 C   0  0  0  0  0  0  0  0  0  0  0  0
    1.3750    0.1458    0.0000 C   0  0  0  0  0  0  0  0  0  0  0  0
    0.2500    0.7958    0.0000 C   0  0  0  0  0  0  0  0  0  0  0  0
    1.7500    0.7958    0.0000 C   0  0  0  0  0  0  0  0  0  0  0  0
    0.6250    1.4458    0.0000 C   0  0  0  0  0  0  0  0  0  0  0  0
    2.5000    4.6792    0.0000 C   0  0  0  0  0  0  0  0  0  0  0  0
    1.7500    4.6792    0.0000 C   0  0  0  0  0  0  0  0  0  0  0  0
  2  1  1  0  0  0  0
  3  1  1  0  0  0  0
  4  2  1  0  0  0  0
  5 10  1  0  0  0  0
  6  7  1  0  0  0  0
  7  3  2  0  0  0  0
  8  4  2  0  0  0  0
  9  3  1  0  0  0  0
 10  9  1  0  0  0  0
 11  4  1  0  0  0  0
 12  1  2  0  0  0  0
 13  8  1  0  0  0  0
 14 11  1  0  0  0  0
 15  6  1  0  0  0  0
 16 20  1  0  0  0  0
 17  9  2  0  0  0  0
 18 10  2  0  0  0  0
 19 21  1  0  0  0  0
 20 22  2  0  0  0  0
 21 15  2  0  0  0  0
 22 15  1  0  0  0  0
 23 17  1  0  0  0  0
 24 23  2  0  0  0  0
  6  5  2  0  0  0  0
 14 13  2  0  0  0  0
 18 24  1  0  0  0  0
 16 19  2  0  0  0  0
M  END
>  <ID> (9149288)
9149288

>  <Supplier> (9149288)
ChemBridge

>  <clogP> (9149288)
2.736000000000000e+000

>  <RB> (9149288)
3

>  <tPSA> (9149288)
6.777000000000000e+001

>  <Hacc> (9149288)
4

>  <Hdon> (9149288)
1

>  <LogSw> (9149288)
-3.960000000000000e+000

>  <Group> (9149288)
2

$$$$
6954169
  -ISIS-  03310818242D

 32 36  0  0  0  0  0  0  0  0999 V2000
    0.8500   -0.7167    0.0000 N   0  0  3  0  0  0  0  0  0  0  0  0
   -0.5708   -0.7167    0.0000 C   0  0  0  0  0  0  0  0  0  0  0  0
    0.1500   -1.1375    0.0000 C   0  0  0  0  0  0  0  0  0  0  0  0
   -0.5708    0.0958    0.0000 C   0  0  0  0  0  0  0  0  0  0  0  0
    0.8500    0.0625    0.0000 C   0  0  0  0  0  0  0  0  0  0  0  0
    0.1500    0.4833    0.0000 N   0  0  0  0  0  0  0  0  0  0  0  0
   -1.2708   -1.1375    0.0000 C   0  0  3  0  0  0  0  0  0  0  0  0
    1.5500   -1.1042    0.0000 C   0  0  0  0  0  0  0  0  0  0  0  0
   -1.2708    0.4833    0.0000 C   0  0  0  0  0  0  0  0  0  0  0  0
   -1.9708    0.0958    0.0000 C   0  0  0  0  0  0  0  0  0  0  0  0
   -1.9708   -0.7167    0.0000 C   0  0  0  0  0  0  0  0  0  0  0  0
    3.6875    0.8000    0.0000 N   0  0  0  0  0  0  0  0  0  0  0  0
    1.5500   -1.9167    0.0000 C   0  0  0  0  0  0  0  0  0  0  0  0
    0.1500   -1.9500    0.0000 O   0  0  0  0  0  0  0  0  0  0  0  0
    2.9667    0.4125    0.0000 C   0  0  0  0  0  0  0  0  0  0  0  0
    1.5667    0.4500    0.0000 S   0  0  0  0  0  0  0  0  0  0  0  0
    2.2500   -2.3042    0.0000 C   0  0  0  0  0  0  0  0  0  0  0  0
   -2.0708   -1.2292    0.0000 C   0  0  0  0  0  0  0  0  0  0  0  0
   -0.7958   -1.8000    0.0000 C   0  0  0  0  0  0  0  0  0  0  0  0
    2.2500   -0.7167    0.0000 C   0  0  0  0  0  0  0  0  0  0  0  0
    2.2500    0.0208    0.0000 C   0  0  0  0  0  0  0  0  0  0  0  0
   -1.2708    1.2958    0.0000 C   0  0  0  0  0  0  0  0  0  0  0  0
    2.2500   -3.1167    0.0000 O   0  0  0  0  0  0  0  0  0  0  0  0
   -2.6708    0.4833    0.0000 C   0  0  0  0  0  0  0  0  0  0  0  0
    2.9500   -1.1042    0.0000 C   0  0  0  0  0  0  0  0  0  0  0  0
    2.9500   -1.9167    0.0000 C   0  0  0  0  0  0  0  0  0  0  0  0
    2.9500   -3.5375    0.0000 C   0  0  0  0  0  0  0  0  0  0  0  0
   -2.3958   -1.9500    0.0000 C   0  0  0  0  0  0  0  0  0  0  0  0
   -1.1333   -2.5167    0.0000 C   0  0  0  0  0  0  0  0  0  0  0  0
   -1.9708    1.6833    0.0000 C   0  0  0  0  0  0  0  0  0  0  0  0
   -2.6708    1.2958    0.0000 C   0  0  0  0  0  0  0  0  0  0  0  0
   -1.9125   -2.6042    0.0000 C   0  0  0  0  0  0  0  0  0  0  0  0
  2  3  1  0  0  0  0
  3  1  1  0  0  0  0
  4  6  1  0  0  0  0
  5  1  1  0  0  0  0
  6  5  2  0  0  0  0
  7  2  1  0  0  0  0
  8  1  1  0  0  0  0
  9  4  1  0  0  0  0
 10  9  2  0  0  0  0
 11  7  1  0  0  0  0
 12 15  3  0  0  0  0
 13  8  1  0  0  0  0
 14  3  2  0  0  0  0
 15 21  1  0  0  0  0
 16  5  1  0  0  0  0
 17 13  2  0  0  0  0
 18  7  1  0  0  0  0
 19  7  1  0  0  0  0
 20  8  2  0  0  0  0
 21 16  1  0  0  0  0
 22  9  1  0  0  0  0
 23 17  1  0  0  0  0
 24 10  1  0  0  0  0
 25 20  1  0  0  0  0
 26 25  2  0  0  0  0
 27 23  1  0  0  0  0
 28 18  1  0  0  0  0
 29 19  1  0  0  0  0
 30 22  2  0  0  0  0
 31 30  1  0  0  0  0
 32 29  1  0  0  0  0
  2  4  2  0  0  0  0
 26 17  1  0  0  0  0
 11 10  1  0  0  0  0
 28 32  1  0  0  0  0
 31 24  2  0  0  0  0
M  END
>  <ID> (6954169)
6954169

>  <Supplier> (6954169)
ChemBridge

>  <clogP> (6954169)
5.109999999999999e+000

>  <RB> (6954169)
3

>  <tPSA> (6954169)
6.791000000000000e+001

>  <Hacc> (6954169)
4

>  <Hdon> (6954169)
0

>  <LogSw> (6954169)
-7.061999999999999e+000

>  <Group> (6954169)
1

>  <Core> (6954169)
039

$$$$
9048287
  -ISIS-  03310818282D

 26 28  0  0  0  0  0  0  0  0999 V2000
    5.4417    1.7708    0.0000 S   0  0  3  0  0  0  0  0  0  0  0  0
    5.8167    2.4208    0.0000 C   0  0  0  0  0  0  0  0  0  0  0  0
    4.7167    1.9625    0.0000 N   0  0  3  0  0  0  0  0  0  0  0  0
    3.2667    2.3500    0.0000 N   0  0  3  0  0  0  0  0  0  0  0  0
    6.5667    2.4208    0.0000 C   0  0  0  0  0  0  0  0  0  0  0  0
    5.1792    1.0625    0.0000 O   0  0  0  0  0  0  0  0  0  0  0  0
    6.1167    1.4500    0.0000 O   0  0  0  0  0  0  0  0  0  0  0  0
    2.5417    2.5458    0.0000 C   0  0  0  0  0  0  0  0  0  0  0  0
    4.1875    1.4333    0.0000 C   0  0  0  0  0  0  0  0  0  0  0  0
    4.5167    2.6875    0.0000 C   0  0  0  0  0  0  0  0  0  0  0  0
    5.4417    3.0708    0.0000 C   0  0  0  0  0  0  0  0  0  0  0  0
    3.4625    1.6250    0.0000 C   0  0  0  0  0  0  0  0  0  0  0  0
    3.7917    2.8833    0.0000 C   0  0  0  0  0  0  0  0  0  0  0  0
    2.3500    3.2708    0.0000 C   0  0  0  0  0  0  0  0  0  0  0  0
    5.8167    3.7208    0.0000 C   0  0  0  0  0  0  0  0  0  0  0  0
    6.9417    3.0708    0.0000 C   0  0  0  0  0  0  0  0  0  0  0  0
    6.5667    3.7208    0.0000 C   0  0  0  0  0  0  0  0  0  0  0  0
    4.6917    3.0708    0.0000 O   0  0  0  0  0  0  0  0  0  0  0  0
    7.6917    3.0708    0.0000 O   0  0  0  0  0  0  0  0  0  0  0  0
    2.0042    2.0208    0.0000 C   0  0  0  0  0  0  0  0  0  0  0  0
    2.8792    3.8000    0.0000 C   0  0  0  0  0  0  0  0  0  0  0  0
    1.6250    3.4625    0.0000 C   0  0  0  0  0  0  0  0  0  0  0  0
    4.3167    3.7208    0.0000 C   0  0  0  0  0  0  0  0  0  0  0  0
    8.0667    3.7208    0.0000 C   0  0  0  0  0  0  0  0  0  0  0  0
    1.2875    2.2083    0.0000 C   0  0  0  0  0  0  0  0  0  0  0  0
    1.0917    2.9333    0.0000 C   0  0  0  0  0  0  0  0  0  0  0  0
  2  1  1  0  0  0  0
  3  1  1  0  0  0  0
  4 13  1  0  0  0  0
  5  2  1  0  0  0  0
  6  1  2  0  0  0  0
  7  1  2  0  0  0  0
  8  4  1  0  0  0  0
  9  3  1  0  0  0  0
 10  3  1  0  0  0  0
 11  2  2  0  0  0  0
 12  9  1  0  0  0  0
 13 10  1  0  0  0  0
 14  8  1  0  0  0  0
 15 11  1  0  0  0  0
 16  5  2  0  0  0  0
 17 15  2  0  0  0  0
 18 11  1  0  0  0  0
 19 16  1  0  0  0  0
 20  8  2  0  0  0  0
 21 14  1  0  0  0  0
 22 14  2  0  0  0  0
 23 18  1  0  0  0  0
 24 19  1  0  0  0  0
 25 20  1  0  0  0  0
 26 25  2  0  0  0  0
  4 12  1  0  0  0  0
 17 16  1  0  0  0  0
 22 26  1  0  0  0  0
M  END
>  <ID> (9048287)
9048287

>  <Supplier> (9048287)
ChemBridge

>  <clogP> (9048287)
2.918000000000000e+000

>  <RB> (9048287)
2

>  <tPSA> (9048287)
5.908000000000001e+001

>  <Hacc> (9048287)
5

>  <Hdon> (9048287)
0

>  <LogSw> (9048287)
-4.911000000000001e+000

>  <Group> (9048287)
1

>  <Core> (9048287)
161

$$$$
7394493
  -ISIS-  03310818262D

 32 35  0  0  0  0  0  0  0  0999 V2000
    1.4292   -1.0542    0.0000 N   0  0  3  0  0  0  0  0  0  0  0  0
    1.6875   -1.8417    0.0000 C   0  0  0  0  0  0  0  0  0  0  0  0
    2.1000   -0.5667    0.0000 C   0  0  0  0  0  0  0  0  0  0  0  0
    2.7667   -1.0542    0.0000 C   0  0  0  0  0  0  0  0  0  0  0  0
    2.5042   -1.8417    0.0000 N   0  0  0  0  0  0  0  0  0  0  0  0
    6.9667    4.7542    0.0000 N   0  3  0  0  0  0  0  0  0  0  0  0
    0.6500   -0.8000    0.0000 C   0  0  0  0  0  0  0  0  0  0  0  0
    3.5542   -0.8000    0.0000 C   0  0  0  0  0  0  0  0  0  0  0  0
    6.1667    4.5125    0.0000 C   0  0  0  0  0  0  0  0  0  0  0  0
    0.0417   -1.3542    0.0000 C   0  0  0  0  0  0  0  0  0  0  0  0
    1.2000   -2.5042    0.0000 O   0  0  0  0  0  0  0  0  0  0  0  0
    7.5667    4.2000    0.0000 O   0  5  0  0  0  0  0  0  0  0  0  0
    7.1417    5.5542    0.0000 O   0  0  0  0  0  0  0  0  0  0  0  0
    2.0917    0.2583    0.0000 O   0  0  0  0  0  0  0  0  0  0  0  0
    5.9917    3.7208    0.0000 C   0  0  0  0  0  0  0  0  0  0  0  0
    3.7167    0.0083    0.0000 C   0  0  0  0  0  0  0  0  0  0  0  0
   -0.7458   -1.1042    0.0000 C   0  0  0  0  0  0  0  0  0  0  0  0
    4.2542    2.4208    0.0000 O   0  0  0  0  0  0  0  0  0  0  0  0
    4.0667    1.6125    0.0000 C   0  0  0  0  0  0  0  0  0  0  0  0
    5.2125    3.4833    0.0000 C   0  0  0  0  0  0  0  0  0  0  0  0
    5.0292    2.6833    0.0000 C   0  0  0  0  0  0  0  0  0  0  0  0
    0.4792    0.0083    0.0000 C   0  0  0  0  0  0  0  0  0  0  0  0
   -1.3583   -1.6542    0.0000 Cl  0  0  0  0  0  0  0  0  0  0  0  0
    4.5000    0.2625    0.0000 C   0  0  0  0  0  0  0  0  0  0  0  0
    3.1042    0.5708    0.0000 C   0  0  0  0  0  0  0  0  0  0  0  0
    3.2792    1.3708    0.0000 C   0  0  0  0  0  0  0  0  0  0  0  0
    4.6667    1.0708    0.0000 C   0  0  0  0  0  0  0  0  0  0  0  0
    5.5750    5.0750    0.0000 C   0  0  0  0  0  0  0  0  0  0  0  0
   -0.3083    0.2583    0.0000 C   0  0  0  0  0  0  0  0  0  0  0  0
    4.7792    4.8167    0.0000 C   0  0  0  0  0  0  0  0  0  0  0  0
   -0.9208   -0.2917    0.0000 C   0  0  0  0  0  0  0  0  0  0  0  0
    4.6042    4.0167    0.0000 C   0  0  0  0  0  0  0  0  0  0  0  0
  2  1  1  0  0  0  0
  3  1  1  0  0  0  0
  4  3  1  0  0  0  0
  5  2  1  0  0  0  0
  6  9  1  0  0  0  0
  7  1  1  0  0  0  0
  8  4  2  0  0  0  0
  9 15  1  0  0  0  0
 10  7  1  0  0  0  0
 11  2  2  0  0  0  0
 12  6  1  0  0  0  0
 13  6  2  0  0  0  0
 14  3  2  0  0  0  0
 15 20  2  0  0  0  0
 16  8  1  0  0  0  0
 17 10  2  0  0  0  0
 18 19  1  0  0  0  0
 19 26  2  0  0  0  0
 20 21  1  0  0  0  0
 21 18  1  0  0  0  0
 22  7  2  0  0  0  0
 23 17  1  0  0  0  0
 24 16  1  0  0  0  0
 25 16  2  0  0  0  0
 26 25  1  0  0  0  0
 27 24  2  0  0  0  0
 28 30  1  0  0  0  0
 29 22  1  0  0  0  0
 30 32  2  0  0  0  0
 31 29  2  0  0  0  0
 32 20  1  0  0  0  0
  5  4  1  0  0  0  0
 17 31  1  0  0  0  0
 27 19  1  0  0  0  0
 28  9  2  0  0  0  0
M  CHG  2   6   1  12  -1
M  END
>  <ID> (7394493)
7394493

>  <Supplier> (7394493)
ChemBridge

>  <clogP> (7394493)
4.420000000000000e+000

>  <RB> (7394493)
5

>  <tPSA> (7394493)
1.017800000000000e+002

>  <Hacc> (7394493)
5

>  <Hdon> (7394493)
1

>  <LogSw> (7394493)
-7.060000000000000e+000

>  <Group> (7394493)
1

>  <Core> (7394493)
003

$$$$
9027061
  -ISIS-  03310818282D

 30 34  0  0  0  0  0  0  0  0999 V2000
    5.4042    2.5208    0.0000 C   0  0  0  0  0  0  0  0  0  0  0  0
    5.4042    3.2708    0.0000 C   0  0  0  0  0  0  0  0  0  0  0  0
    4.2500    2.8958    0.0000 C   0  0  0  0  0  0  0  0  0  0  0  0
    4.6875    2.2875    0.0000 N   0  0  3  0  0  0  0  0  0  0  0  0
    4.6875    3.5000    0.0000 N   0  0  0  0  0  0  0  0  0  0  0  0
    6.0542    3.6458    0.0000 N   0  0  3  0  0  0  0  0  0  0  0  0
    6.7000    2.5208    0.0000 N   0  0  3  0  0  0  0  0  0  0  0  0
    6.7000    3.2708    0.0000 C   0  0  0  0  0  0  0  0  0  0  0  0
    6.0542    2.1458    0.0000 C   0  0  0  0  0  0  0  0  0  0  0  0
    3.5292    2.6625    0.0000 N   0  0  3  0  0  0  0  0  0  0  0  0
    3.5292    1.9125    0.0000 C   0  0  0  0  0  0  0  0  0  0  0  0
    4.2500    1.6833    0.0000 C   0  0  0  0  0  0  0  0  0  0  0  0
    2.9292    3.1083    0.0000 C   0  0  0  0  0  0  0  0  0  0  0  0
    7.3500    3.6458    0.0000 O   0  0  0  0  0  0  0  0  0  0  0  0
    6.0542    1.3958    0.0000 O   0  0  0  0  0  0  0  0  0  0  0  0
    1.6375    3.2375    0.0000 N   0  0  3  0  0  0  0  0  0  0  0  0
    2.9292    1.4708    0.0000 C   0  0  0  0  0  0  0  0  0  0  0  0
    6.0542    4.3917    0.0000 C   0  0  0  0  0  0  0  0  0  0  0  0
    7.3500    2.1458    0.0000 C   0  0  0  0  0  0  0  0  0  0  0  0
    2.2417    2.8000    0.0000 C   0  0  0  0  0  0  0  0  0  0  0  0
    0.4250    4.1167    0.0000 O   0  0  0  0  0  0  0  0  0  0  0  0
    0.9500    2.9333    0.0000 C   0  0  0  0  0  0  0  0  0  0  0  0
    1.7167    3.9833    0.0000 C   0  0  0  0  0  0  0  0  0  0  0  0
    1.1042    4.4167    0.0000 C   0  0  0  0  0  0  0  0  0  0  0  0
    0.3417    3.3750    0.0000 C   0  0  0  0  0  0  0  0  0  0  0  0
    2.2417    1.7750    0.0000 C   0  0  0  0  0  0  0  0  0  0  0  0
    3.0042    0.7250    0.0000 C   0  0  0  0  0  0  0  0  0  0  0  0
    2.4000    0.2833    0.0000 C   0  0  0  0  0  0  0  0  0  0  0  0
    1.6375    1.3375    0.0000 C   0  0  0  0  0  0  0  0  0  0  0  0
    1.7167    0.5958    0.0000 C   0  0  0  0  0  0  0  0  0  0  0  0
  2  1  2  0  0  0  0
  3  4  1  0  0  0  0
  4  1  1  0  0  0  0
  5  2  1  0  0  0  0
  6  2  1  0  0  0  0
  7  9  1  0  0  0  0
  8  7  1  0  0  0  0
  9  1  1  0  0  0  0
 10  3  1  0  0  0  0
 11 12  2  0  0  0  0
 12  4  1  0  0  0  0
 13 10  1  0  0  0  0
 14  8  2  0  0  0  0
 15  9  2  0  0  0  0
 16 20  1  0  0  0  0
 17 11  1  0  0  0  0
 18  6  1  0  0  0  0
 19  7  1  0  0  0  0
 20 13  1  0  0  0  0
 21 24  1  0  0  0  0
 22 16  1  0  0  0  0
 23 16  1  0  0  0  0
 24 23  1  0  0  0  0
 25 22  1  0  0  0  0
 26 17  1  0  0  0  0
 27 17  2  0  0  0  0
 28 27  1  0  0  0  0
 29 26  2  0  0  0  0
 30 28  2  0  0  0  0
  5  3  2  0  0  0  0
  6  8  1  0  0  0  0
 11 10  1  0  0  0  0
 29 30  1  0  0  0  0
 25 21  1  0  0  0  0
M  END
>  <ID> (9027061)
9027061

>  <Supplier> (9027061)
ChemBridge

>  <clogP> (9027061)
2.422000000000000e+000

>  <RB> (9027061)
4

>  <tPSA> (9027061)
7.870000000000000e+001

>  <Hacc> (9027061)
5

>  <Hdon> (9027061)
0

>  <LogSw> (9027061)
-4.239000000000002e+000

>  <Group> (9027061)
2

>  <Core> (9027061)
131

$$$$
9027060
  -ISIS-  03310818282D

 19 21  0  0  0  0  0  0  0  0999 V2000
    4.0292    1.8250    0.0000 N   0  0  0  0  0  0  0  0  0  0  0  0
    3.3167    1.5958    0.0000 N   0  0  3  0  0  0  0  0  0  0  0  0
    4.0292    0.6125    0.0000 N   0  0  0  0  0  0  0  0  0  0  0  0
    4.4667    1.2208    0.0000 C   0  0  0  0  0  0  0  0  0  0  0  0
    3.3167    0.8458    0.0000 N   0  0  0  0  0  0  0  0  0  0  0  0
    2.0250    1.7333    0.0000 C   0  0  0  0  0  0  0  0  0  0  0  0
    0.8167    1.6000    0.0000 N   0  0  0  0  0  0  0  0  0  0  0  0
    1.3750    2.1083    0.0000 N   0  0  0  0  0  0  0  0  0  0  0  0
    1.1250    0.9208    0.0000 N   0  0  0  0  0  0  0  0  0  0  0  0
    1.8667    0.9958    0.0000 N   0  0  0  0  0  0  0  0  0  0  0  0
    2.7125    2.0333    0.0000 C   0  0  0  0  0  0  0  0  0  0  0  0
    5.2167    1.2208    0.0000 C   0  0  0  0  0  0  0  0  0  0  0  0
    5.5917    0.5708    0.0000 C   0  0  0  0  0  0  0  0  0  0  0  0
    5.5917    1.8708    0.0000 C   0  0  0  0  0  0  0  0  0  0  0  0
    6.7167    1.2208    0.0000 C   0  0  0  0  0  0  0  0  0  0  0  0
    7.4667    1.2208    0.0000 S   0  0  0  0  0  0  0  0  0  0  0  0
    6.3417    1.8708    0.0000 C   0  0  0  0  0  0  0  0  0  0  0  0
    6.3417    0.5708    0.0000 C   0  0  0  0  0  0  0  0  0  0  0  0
    7.8417    0.5708    0.0000 C   0  0  0  0  0  0  0  0  0  0  0  0
  2  1  1  0  0  0  0
  3  4  1  0  0  0  0
  4  1  2  0  0  0  0
  5  2  1  0  0  0  0
  6 11  1  0  0  0  0
  7  8  1  0  0  0  0
  8  6  2  0  0  0  0
  9 10  1  0  0  0  0
 10  6  1  0  0  0  0
 11  2  1  0  0  0  0
 12  4  1  0  0  0  0
 13 12  2  0  0  0  0
 14 12  1  0  0  0  0
 15 17  1  0  0  0  0
 16 15  1  0  0  0  0
 17 14  2  0  0  0  0
 18 13  1  0  0  0  0
 19 16  1  0  0  0  0
  5  3  2  0  0  0  0
 18 15  2  0  0  0  0
  9  7  2  0  0  0  0
M  END
>  <ID> (9027060)
9027060

>  <Supplier> (9027060)
ChemBridge

>  <clogP> (9027060)
7.630000000000000e-001

>  <RB> (9027060)
3

>  <tPSA> (9027060)
9.806000000000000e+001

>  <Hacc> (9027060)
6

>  <Hdon> (9027060)
1

>  <LogSw> (9027060)
-1.853000000000000e+000

>  <Group> (9027060)
2

>  <Core> (9027060)
349

$$$$
9048288
  -ISIS-  03310818282D

 21 23  0  0  0  0  0  0  0  0999 V2000
    3.0292    1.8333    0.0000 N   0  0  3  0  0  0  0  0  0  0  0  0
    2.5875    1.2250    0.0000 C   0  0  0  0  0  0  0  0  0  0  0  0
    3.0292    0.6208    0.0000 N   0  0  0  0  0  0  0  0  0  0  0  0
    3.7417    1.6000    0.0000 C   0  0  0  0  0  0  0  0  0  0  0  0
    3.7417    0.8500    0.0000 N   0  0  0  0  0  0  0  0  0  0  0  0
    4.3500    2.0458    0.0000 S   0  0  0  0  0  0  0  0  0  0  0  0
    1.8375    1.2250    0.0000 C   0  0  0  0  0  0  0  0  0  0  0  0
    6.9292    2.3125    0.0000 C   0  0  3  0  0  0  0  0  0  0  0  0
    5.6417    2.1750    0.0000 C   0  0  0  0  0  0  0  0  0  0  0  0
    6.3250    1.8708    0.0000 N   0  0  0  0  0  0  0  0  0  0  0  0
    7.6792    2.3958    0.0000 C   0  0  0  0  0  0  0  0  0  0  0  0
    7.2375    2.9958    0.0000 C   0  0  0  0  0  0  0  0  0  0  0  0
    1.4625    1.8750    0.0000 N   0  0  0  0  0  0  0  0  0  0  0  0
    5.5625    2.9208    0.0000 O   0  0  0  0  0  0  0  0  0  0  0  0
    2.7917    2.5458    0.0000 C   0  0  0  0  0  0  0  0  0  0  0  0
    5.0292    1.7375    0.0000 C   0  0  0  0  0  0  0  0  0  0  0  0
    0.7125    1.8750    0.0000 C   0  0  0  0  0  0  0  0  0  0  0  0
    1.4625    0.5750    0.0000 C   0  0  0  0  0  0  0  0  0  0  0  0
    3.3000    3.1083    0.0000 C   0  0  0  0  0  0  0  0  0  0  0  0
    0.3375    1.2250    0.0000 C   0  0  0  0  0  0  0  0  0  0  0  0
    0.7125    0.5750    0.0000 C   0  0  0  0  0  0  0  0  0  0  0  0
  2  1  1  0  0  0  0
  3  2  2  0  0  0  0
  4  1  1  0  0  0  0
  5  4  2  0  0  0  0
  6  4  1  0  0  0  0
  7  2  1  0  0  0  0
  8 10  1  0  0  0  0
  9 16  1  0  0  0  0
 10  9  1  0  0  0  0
 11  8  1  0  0  0  0
 12  8  1  0  0  0  0
 13  7  1  0  0  0  0
 14  9  2  0  0  0  0
 15  1  1  0  0  0  0
 16  6  1  0  0  0  0
 17 13  2  0  0  0  0
 18  7  2  0  0  0  0
 19 15  1  0  0  0  0
 20 21  2  0  0  0  0
 21 18  1  0  0  0  0
  5  3  1  0  0  0  0
 17 20  1  0  0  0  0
 12 11  1  0  0  0  0
M  END
>  <ID> (9048288)
9048288

>  <Supplier> (9048288)
ChemBridge

>  <clogP> (9048288)
-4.900000000000000e-002

>  <RB> (9048288)
5

>  <tPSA> (9048288)
7.270000000000000e+001

>  <Hacc> (9048288)
4

>  <Hdon> (9048288)
1

>  <LogSw> (9048288)
-2.491000000000000e+000

>  <Group> (9048288)
1

>  <Core> (9048288)
009

$$$$
7801569
  -ISIS-  03310818272D

 21 22  0  0  0  0  0  0  0  0999 V2000
    3.0500   -3.5542    0.0000 C   0  0  0  0  0  0  0  0  0  0  0  0
    3.0500   -2.7292    0.0000 N   0  0  0  0  0  0  0  0  0  0  0  0
    2.3292   -3.9667    0.0000 N   0  0  0  0  0  0  0  0  0  0  0  0
    2.3292   -2.3167    0.0000 C   0  0  0  0  0  0  0  0  0  0  0  0
    1.6167   -2.7292    0.0000 N   0  0  0  0  0  0  0  0  0  0  0  0
    1.6167   -3.5542    0.0000 C   0  0  0  0  0  0  0  0  0  0  0  0
    3.7667   -3.9667    0.0000 N   0  0  3  0  0  0  0  0  0  0  0  0
    2.3292   -1.4917    0.0000 S   0  0  0  0  0  0  0  0  0  0  0  0
    3.0417   -0.2542    0.0000 C   0  0  0  0  0  0  0  0  0  0  0  0
    3.0417   -1.0792    0.0000 C   0  0  3  0  0  0  0  0  0  0  0  0
    2.3042    0.1583    0.0000 O   0  0  0  0  0  0  0  0  0  0  0  0
    0.9042   -3.9667    0.0000 N   0  0  0  0  0  0  0  0  0  0  0  0
    5.1917   -4.7917    0.0000 O   0  0  0  0  0  0  0  0  0  0  0  0
    3.7500    0.1500    0.0000 O   0  0  0  0  0  0  0  0  0  0  0  0
    3.7667   -4.8000    0.0000 C   0  0  0  0  0  0  0  0  0  0  0  0
    4.4792   -3.5625    0.0000 C   0  0  0  0  0  0  0  0  0  0  0  0
    4.4875   -5.2125    0.0000 C   0  0  0  0  0  0  0  0  0  0  0  0
    5.1917   -3.9667    0.0000 C   0  0  0  0  0  0  0  0  0  0  0  0
    3.7542   -1.4875    0.0000 C   0  0  0  0  0  0  0  0  0  0  0  0
    0.1917   -3.5542    0.0000 C   0  0  0  0  0  0  0  0  0  0  0  0
    3.7542    0.9708    0.0000 C   0  0  0  0  0  0  0  0  0  0  0  0
  2  1  1  0  0  0  0
  3  1  2  0  0  0  0
  4  2  2  0  0  0  0
  5  6  2  0  0  0  0
  6  3  1  0  0  0  0
  7  1  1  0  0  0  0
  8  4  1  0  0  0  0
  9 10  1  0  0  0  0
 10  8  1  0  0  0  0
 11  9  2  0  0  0  0
 12  6  1  0  0  0  0
 13 18  1  0  0  0  0
 14  9  1  0  0  0  0
 15  7  1  0  0  0  0
 16  7  1  0  0  0  0
 17 15  1  0  0  0  0
 18 16  1  0  0  0  0
 19 10  1  0  0  0  0
 20 12  1  0  0  0  0
 21 14  1  0  0  0  0
 17 13  1  0  0  0  0
  4  5  1  0  0  0  0
M  END
>  <ID> (7801569)
7801569

>  <Supplier> (7801569)
ChemBridge

>  <clogP> (7801569)
1.610000000000000e+000

>  <RB> (7801569)
4

>  <tPSA> (7801569)
8.947000000000000e+001

>  <Hacc> (7801569)
6

>  <Hdon> (7801569)
1

>  <LogSw> (7801569)
-2.860000000000000e+000

>  <Group> (7801569)
2

>  <Core> (7801569)
026

$$$$
5428923
  -ISIS-  03310818222D

 18 19  0  0  0  0  0  0  0  0999 V2000
   -1.9500    2.2083    0.0000 N   0  0  3  0  0  0  0  0  0  0  0  0
    0.7500    2.1500    0.0000 C   0  0  0  0  0  0  0  0  0  0  0  0
    0.7500    2.9333    0.0000 C   0  0  0  0  0  0  0  0  0  0  0  0
    0.0792    1.7833    0.0000 C   0  0  0  0  0  0  0  0  0  0  0  0
   -0.5958    2.1500    0.0000 C   0  0  0  0  0  0  0  0  0  0  0  0
   -1.2708    1.8125    0.0000 C   0  0  0  0  0  0  0  0  0  0  0  0
   -2.6333    1.8125    0.0000 C   0  0  0  0  0  0  0  0  0  0  0  0
    0.0792    3.3208    0.0000 C   0  0  0  0  0  0  0  0  0  0  0  0
   -0.5958    2.9333    0.0000 C   0  0  0  0  0  0  0  0  0  0  0  0
    1.4167    1.7625    0.0000 O   0  0  0  0  0  0  0  0  0  0  0  0
   -1.9500    2.9958    0.0000 C   0  0  0  0  0  0  0  0  0  0  0  0
    1.4167    3.3208    0.0000 O   0  0  0  0  0  0  0  0  0  0  0  0
   -3.3125    2.2083    0.0000 C   0  0  3  0  0  0  0  0  0  0  0  0
   -2.6333    3.3958    0.0000 C   0  0  0  0  0  0  0  0  0  0  0  0
   -3.3125    2.9958    0.0000 C   0  0  0  0  0  0  0  0  0  0  0  0
    1.4167    0.9833    0.0000 C   0  0  0  0  0  0  0  0  0  0  0  0
    1.4292    4.0917    0.0000 C   0  0  0  0  0  0  0  0  0  0  0  0
   -3.9958    1.8000    0.0000 C   0  0  0  0  0  0  0  0  0  0  0  0
  2  4  2  0  0  0  0
  3  8  2  0  0  0  0
  4  5  1  0  0  0  0
  5  6  1  0  0  0  0
  6  1  1  0  0  0  0
  7  1  1  0  0  0  0
  8  9  1  0  0  0  0
  9  5  2  0  0  0  0
 10  2  1  0  0  0  0
 11  1  1  0  0  0  0
 12  3  1  0  0  0  0
 13  7  1  0  0  0  0
 14 11  1  0  0  0  0
 15 14  1  0  0  0  0
 16 10  1  0  0  0  0
 17 12  1  0  0  0  0
 18 13  1  0  0  0  0
 15 13  1  0  0  0  0
  3  2  1  0  0  0  0
M  END
>  <ID> (5428923)
5428923

>  <Supplier> (5428923)
ChemBridge

>  <clogP> (5428923)
3.340000000000000e+000

>  <RB> (5428923)
2

>  <tPSA> (5428923)
2.170000000000000e+001

>  <Hacc> (5428923)
3

>  <Hdon> (5428923)
0

>  <LogSw> (5428923)
-2.864000000000000e+000

>  <Group> (5428923)
3

$$$$
5428922
  -ISIS-  03310818222D

 24 27  0  0  0  0  0  0  0  0999 V2000
    5.1542    2.8958    0.0000 C   0  0  3  0  0  0  0  0  0  0  0  0
    5.9042    2.8958    0.0000 C   0  0  0  0  0  0  0  0  0  0  0  0
    4.7792    3.5458    0.0000 C   0  0  3  0  0  0  0  0  0  0  0  0
    8.4917    2.6333    0.0000 N   0  0  3  0  0  0  0  0  0  0  0  0
    9.2292    2.7583    0.0000 C   0  0  0  0  0  0  0  0  0  0  0  0
    5.1542    4.1792    0.0000 C   0  0  3  0  0  0  0  0  0  0  0  0
    5.9292    3.5458    0.0000 C   0  0  0  0  0  0  0  0  0  0  0  0
    6.2792    3.5458    0.0000 C   0  0  0  0  0  0  0  0  0  0  0  0
    7.0167    2.3708    0.0000 N   0  0  3  0  0  0  0  0  0  0  0  0
    6.2792    2.2375    0.0000 C   0  0  0  0  0  0  0  0  0  0  0  0
    5.9042    4.1792    0.0000 C   0  0  0  0  0  0  0  0  0  0  0  0
    9.7167    2.1833    0.0000 C   0  0  0  0  0  0  0  0  0  0  0  0
    9.4917    3.4625    0.0000 C   0  0  0  0  0  0  0  0  0  0  0  0
    8.0125    3.2083    0.0000 C   0  0  0  0  0  0  0  0  0  0  0  0
    8.2375    1.9250    0.0000 C   0  0  0  0  0  0  0  0  0  0  0  0
   10.4542    2.3208    0.0000 C   0  0  0  0  0  0  0  0  0  0  0  0
    7.2750    3.0833    0.0000 C   0  0  0  0  0  0  0  0  0  0  0  0
    7.5000    1.7958    0.0000 C   0  0  0  0  0  0  0  0  0  0  0  0
   10.2292    3.5958    0.0000 C   0  0  0  0  0  0  0  0  0  0  0  0
   10.7042    3.0208    0.0000 C   0  0  0  0  0  0  0  0  0  0  0  0
    4.2042    4.0167    0.0000 C   0  0  0  0  0  0  0  0  0  0  0  0
    4.2042    3.0583    0.0000 C   0  0  0  0  0  0  0  0  0  0  0  0
    9.4542    1.4833    0.0000 C   0  0  0  0  0  0  0  0  0  0  0  0
   10.4875    4.2917    0.0000 C   0  0  0  0  0  0  0  0  0  0  0  0
  2  1  1  0  0  0  0
  3  1  1  0  0  0  0
  4 15  1  0  0  0  0
  5  4  1  0  0  0  0
  6  7  1  0  0  0  0
  7  1  1  0  0  0  0
  8  2  2  0  0  0  0
  9 10  1  0  0  0  0
 10  2  1  0  0  0  0
 11  6  1  0  0  0  0
 12  5  1  0  0  0  0
 13  5  2  0  0  0  0
 14 17  1  0  0  0  0
 15 18  1  0  0  0  0
 16 12  2  0  0  0  0
 17  9  1  0  0  0  0
 18  9  1  0  0  0  0
 19 13  1  0  0  0  0
 20 19  2  0  0  0  0
 21  3  1  0  0  0  0
 22  3  1  0  0  0  0
 23 12  1  0  0  0  0
 24 19  1  0  0  0  0
  6  3  1  0  0  0  0
 11  8  1  0  0  0  0
 14  4  1  0  0  0  0
 20 16  1  0  0  0  0
M  END
>  <ID> (5428922)
5428922

>  <Supplier> (5428922)
ChemBridge

>  <clogP> (5428922)
5.510000000000000e+000

>  <RB> (5428922)
3

>  <tPSA> (5428922)
6.480000000000000e+000

>  <Hacc> (5428922)
1

>  <Hdon> (5428922)
0

>  <LogSw> (5428922)
-5.263999999999999e+000

>  <Group> (5428922)
2

>  <Core> (5428922)
162

$$$$
5210229
  -ISIS-  03310818212D

 30 33  0  0  0  0  0  0  0  0999 V2000
   -1.1000   -0.4792    0.0000 N   0  0  3  0  0  0  0  0  0  0  0  0
   -2.7000   -0.4792    0.0000 N   0  0  0  0  0  0  0  0  0  0  0  0
   -2.6833    0.4458    0.0000 C   0  0  0  0  0  0  0  0  0  0  0  0
   -1.8833    0.9208    0.0000 C   0  0  3  0  0  0  0  0  0  0  0  0
   -1.1000    0.4458    0.0000 C   0  0  3  0  0  0  0  0  0  0  0  0
   -0.2833   -0.9500    0.0000 C   0  0  0  0  0  0  0  0  0  0  0  0
    0.5667   -0.5167    0.0000 C   0  0  0  0  0  0  0  0  0  0  0  0
   -3.4833    0.9208    0.0000 C   0  0  0  0  0  0  0  0  0  0  0  0
   -1.8833    1.8458    0.0000 C   0  0  0  0  0  0  0  0  0  0  0  0
    1.3667   -1.0375    0.0000 C   0  0  0  0  0  0  0  0  0  0  0  0
   -3.4833    1.8458    0.0000 C   0  0  0  0  0  0  0  0  0  0  0  0
   -0.3000    0.9208    0.0000 C   0  0  0  0  0  0  0  0  0  0  0  0
   -4.2708    0.4458    0.0000 C   0  0  0  0  0  0  0  0  0  0  0  0
   -2.6833    2.3000    0.0000 C   0  0  0  0  0  0  0  0  0  0  0  0
    2.2292   -0.6292    0.0000 O   0  0  0  0  0  0  0  0  0  0  0  0
   -4.2708    2.3000    0.0000 C   0  0  0  0  0  0  0  0  0  0  0  0
   -0.3000    1.8458    0.0000 C   0  0  0  0  0  0  0  0  0  0  0  0
    0.5000    0.4458    0.0000 C   0  0  0  0  0  0  0  0  0  0  0  0
   -5.0625    0.9208    0.0000 C   0  0  0  0  0  0  0  0  0  0  0  0
    1.3167    1.8458    0.0000 C   0  0  0  0  0  0  0  0  0  0  0  0
    1.3542   -2.0042    0.0000 O   0  0  0  0  0  0  0  0  0  0  0  0
   -5.0625    1.8458    0.0000 C   0  0  0  0  0  0  0  0  0  0  0  0
    1.3000    0.9208    0.0000 C   0  0  0  0  0  0  0  0  0  0  0  0
    0.5000    2.3000    0.0000 C   0  0  0  0  0  0  0  0  0  0  0  0
    2.1542    2.3000    0.0000 F   0  0  0  0  0  0  0  0  0  0  0  0
   -0.2625   -1.9667    0.0000 C   0  0  0  0  0  0  0  0  0  0  0  0
   -5.8833    0.4333    0.0000 O   0  0  0  0  0  0  0  0  0  0  0  0
    2.1792   -2.4875    0.0000 C   0  0  0  0  0  0  0  0  0  0  0  0
   -5.8833   -0.5167    0.0000 C   0  0  0  0  0  0  0  0  0  0  0  0
    2.9875   -2.0167    0.0000 C   0  0  0  0  0  0  0  0  0  0  0  0
  2  1  1  0  0  0  0
  3  2  2  0  0  0  0
  4  5  1  0  0  0  0
  5  1  1  0  0  0  0
  6  1  1  0  0  0  0
  7  6  2  0  0  0  0
  8  3  1  0  0  0  0
  9  4  1  0  0  0  0
 10  7  1  0  0  0  0
 11  8  2  0  0  0  0
 12  5  1  0  0  0  0
 13  8  1  0  0  0  0
 14  9  1  0  0  0  0
 15 10  2  0  0  0  0
 16 11  1  0  0  0  0
 17 12  1  0  0  0  0
 18 12  2  0  0  0  0
 19 13  2  0  0  0  0
 20 23  2  0  0  0  0
 21 10  1  0  0  0  0
 22 19  1  0  0  0  0
 23 18  1  0  0  0  0
 24 17  2  0  0  0  0
 25 20  1  0  0  0  0
 26  6  1  0  0  0  0
 27 19  1  0  0  0  0
 28 21  1  0  0  0  0
 29 27  1  0  0  0  0
 30 28  1  0  0  0  0
  3  4  1  0  0  0  0
 24 20  1  0  0  0  0
 11 14  1  0  0  0  0
 16 22  2  0  0  0  0
M  END
>  <ID> (5210229)
5210229

>  <Supplier> (5210229)
ChemBridge

>  <clogP> (5210229)
6.230000000000000e+000

>  <RB> (5210229)
3

>  <tPSA> (5210229)
5.113000000000000e+001

>  <Hacc> (5210229)
4

>  <Hdon> (5210229)
0

>  <LogSw> (5210229)
-7.498000000000000e+000

>  <Group> (5210229)
1

>  <Core> (5210229)
196

$$$$
9110495
  -ISIS-  03310818292D

 21 22  0  0  0  0  0  0  0  0999 V2000
    6.7167    2.0333    0.0000 C   0  0  0  0  0  0  0  0  0  0  0  0
    7.0917    1.3833    0.0000 N   0  0  0  0  0  0  0  0  0  0  0  0
    7.0917    2.6833    0.0000 N   0  0  0  0  0  0  0  0  0  0  0  0
    0.7167    0.7333    0.0000 N   0  0  0  0  0  0  0  0  0  0  0  0
    1.4667    0.7333    0.0000 C   0  0  0  0  0  0  0  0  0  0  0  0
    4.8417    1.3833    0.0000 C   0  0  0  0  0  0  0  0  0  0  0  0
    5.9667    2.0333    0.0000 S   0  0  0  0  0  0  0  0  0  0  0  0
    4.4667    0.7333    0.0000 N   0  0  0  0  0  0  0  0  0  0  0  0
    7.8417    1.3833    0.0000 C   0  0  0  0  0  0  0  0  0  0  0  0
    7.8417    2.6833    0.0000 C   0  0  0  0  0  0  0  0  0  0  0  0
    8.2167    2.0333    0.0000 C   0  0  0  0  0  0  0  0  0  0  0  0
    4.4667    2.0333    0.0000 O   0  0  0  0  0  0  0  0  0  0  0  0
    5.5917    1.3833    0.0000 C   0  0  0  0  0  0  0  0  0  0  0  0
    2.2167    0.7333    0.0000 C   0  0  0  0  0  0  0  0  0  0  0  0
    3.7167    0.7333    0.0000 C   0  0  0  0  0  0  0  0  0  0  0  0
    2.5917    0.0833    0.0000 C   0  0  0  0  0  0  0  0  0  0  0  0
    2.5917    1.3833    0.0000 C   0  0  0  0  0  0  0  0  0  0  0  0
    3.3417    0.0833    0.0000 C   0  0  0  0  0  0  0  0  0  0  0  0
    3.3417    1.3833    0.0000 C   0  0  0  0  0  0  0  0  0  0  0  0
    8.2167    0.7333    0.0000 C   0  0  0  0  0  0  0  0  0  0  0  0
    8.2167    3.3333    0.0000 C   0  0  0  0  0  0  0  0  0  0  0  0
  2  1  1  0  0  0  0
  3  1  2  0  0  0  0
  4  5  3  0  0  0  0
  5 14  1  0  0  0  0
  6 13  1  0  0  0  0
  7  1  1  0  0  0  0
  8  6  1  0  0  0  0
  9  2  2  0  0  0  0
 10  3  1  0  0  0  0
 11 10  2  0  0  0  0
 12  6  2  0  0  0  0
 13  7  1  0  0  0  0
 14 17  2  0  0  0  0
 15  8  1  0  0  0  0
 16 18  2  0  0  0  0
 17 19  1  0  0  0  0
 18 15  1  0  0  0  0
 19 15  2  0  0  0  0
 20  9  1  0  0  0  0
 21 10  1  0  0  0  0
  9 11  1  0  0  0  0
 14 16  1  0  0  0  0
M  END
>  <ID> (9110495)
9110495

>  <Supplier> (9110495)
ChemBridge

>  <clogP> (9110495)
2.457000000000000e+000

>  <RB> (9110495)
4

>  <tPSA> (9110495)
7.866999999999999e+001

>  <Hacc> (9110495)
4

>  <Hdon> (9110495)
1

>  <LogSw> (9110495)
-3.739000000000000e+000

>  <Group> (9110495)
2

$$$$
5210225
  -ISIS-  03310818212D

 27 30  0  0  0  0  0  0  0  0999 V2000
   -1.1000   -0.4792    0.0000 N   0  0  3  0  0  0  0  0  0  0  0  0
   -2.7000   -0.4792    0.0000 N   0  0  0  0  0  0  0  0  0  0  0  0
   -2.6833    0.4458    0.0000 C   0  0  0  0  0  0  0  0  0  0  0  0
   -1.8833    0.9208    0.0000 C   0  0  3  0  0  0  0  0  0  0  0  0
   -1.1000    0.4458    0.0000 C   0  0  3  0  0  0  0  0  0  0  0  0
    2.1542    2.3000    0.0000 N   0  3  0  0  0  0  0  0  0  0  0  0
   -3.4833    0.9208    0.0000 C   0  0  0  0  0  0  0  0  0  0  0  0
   -0.2833   -0.9500    0.0000 C   0  0  0  0  0  0  0  0  0  0  0  0
   -1.8833    1.8458    0.0000 C   0  0  0  0  0  0  0  0  0  0  0  0
    1.3167    1.8458    0.0000 C   0  0  0  0  0  0  0  0  0  0  0  0
   -3.4833    1.8458    0.0000 C   0  0  0  0  0  0  0  0  0  0  0  0
   -0.3000    0.9208    0.0000 C   0  0  0  0  0  0  0  0  0  0  0  0
    3.0292    1.8833    0.0000 O   0  5  0  0  0  0  0  0  0  0  0  0
    2.2500    3.2500    0.0000 O   0  0  0  0  0  0  0  0  0  0  0  0
   -4.2708    0.4458    0.0000 C   0  0  0  0  0  0  0  0  0  0  0  0
   -0.2208   -1.9042    0.0000 O   0  0  0  0  0  0  0  0  0  0  0  0
   -2.6833    2.3000    0.0000 C   0  0  0  0  0  0  0  0  0  0  0  0
    0.5000    2.3000    0.0000 C   0  0  0  0  0  0  0  0  0  0  0  0
    1.3000    0.9208    0.0000 C   0  0  0  0  0  0  0  0  0  0  0  0
   -0.3000    1.8458    0.0000 C   0  0  0  0  0  0  0  0  0  0  0  0
    0.5000    0.4458    0.0000 C   0  0  0  0  0  0  0  0  0  0  0  0
   -4.2708    2.3000    0.0000 C   0  0  0  0  0  0  0  0  0  0  0  0
   -5.0625    0.9208    0.0000 C   0  0  0  0  0  0  0  0  0  0  0  0
   -5.0625    1.8458    0.0000 C   0  0  0  0  0  0  0  0  0  0  0  0
   -5.8833    0.4333    0.0000 O   0  0  0  0  0  0  0  0  0  0  0  0
    0.5667   -0.5167    0.0000 C   0  0  0  0  0  0  0  0  0  0  0  0
   -5.8833   -0.5167    0.0000 C   0  0  0  0  0  0  0  0  0  0  0  0
  2  1  1  0  0  0  0
  3  2  2  0  0  0  0
  4  5  1  0  0  0  0
  5  1  1  0  0  0  0
  6 10  1  0  0  0  0
  7  3  1  0  0  0  0
  8  1  1  0  0  0  0
  9  4  1  0  0  0  0
 10 19  2  0  0  0  0
 11  7  2  0  0  0  0
 12  5  1  0  0  0  0
 13  6  1  0  0  0  0
 14  6  2  0  0  0  0
 15  7  1  0  0  0  0
 16  8  2  0  0  0  0
 17  9  1  0  0  0  0
 18 20  2  0  0  0  0
 19 21  1  0  0  0  0
 20 12  1  0  0  0  0
 21 12  2  0  0  0  0
 22 11  1  0  0  0  0
 23 15  2  0  0  0  0
 24 23  1  0  0  0  0
 25 23  1  0  0  0  0
 26  8  1  0  0  0  0
 27 25  1  0  0  0  0
  3  4  1  0  0  0  0
 18 10  1  0  0  0  0
 11 17  1  0  0  0  0
 24 22  2  0  0  0  0
M  CHG  2   6   1  13  -1
M  END
>  <ID> (5210225)
5210225

>  <Supplier> (5210225)
ChemBridge

>  <clogP> (5210225)
5.420000000000000e+000

>  <RB> (5210225)
1

>  <tPSA> (5210225)
8.504000000000002e+001

>  <Hacc> (5210225)
5

>  <Hdon> (5210225)
0

>  <LogSw> (5210225)
-6.883000000000000e+000

>  <Group> (5210225)
1

>  <Core> (5210225)
196

$$$$
5210224
  -ISIS-  03310818212D

 27 30  0  0  0  0  0  0  0  0999 V2000
   -1.1000   -0.4792    0.0000 N   0  0  3  0  0  0  0  0  0  0  0  0
   -2.7000   -0.4792    0.0000 N   0  0  0  0  0  0  0  0  0  0  0  0
   -2.6833    0.4458    0.0000 C   0  0  0  0  0  0  0  0  0  0  0  0
   -1.8833    0.9208    0.0000 C   0  0  3  0  0  0  0  0  0  0  0  0
   -1.1000    0.4458    0.0000 C   0  0  3  0  0  0  0  0  0  0  0  0
    2.1542    2.3000    0.0000 N   0  3  0  0  0  0  0  0  0  0  0  0
   -3.4833    0.9208    0.0000 C   0  0  0  0  0  0  0  0  0  0  0  0
   -0.2833   -0.9500    0.0000 C   0  0  0  0  0  0  0  0  0  0  0  0
   -3.4833    1.8458    0.0000 C   0  0  0  0  0  0  0  0  0  0  0  0
   -1.8833    1.8458    0.0000 C   0  0  0  0  0  0  0  0  0  0  0  0
    1.3167    1.8458    0.0000 C   0  0  0  0  0  0  0  0  0  0  0  0
   -4.2708    0.4458    0.0000 C   0  0  0  0  0  0  0  0  0  0  0  0
   -0.3000    0.9208    0.0000 C   0  0  0  0  0  0  0  0  0  0  0  0
    3.0292    1.8833    0.0000 O   0  5  0  0  0  0  0  0  0  0  0  0
    2.2500    3.2500    0.0000 O   0  0  0  0  0  0  0  0  0  0  0  0
   -2.6833    2.3000    0.0000 C   0  0  0  0  0  0  0  0  0  0  0  0
   -4.2708    2.3000    0.0000 C   0  0  0  0  0  0  0  0  0  0  0  0
   -0.2208   -1.9042    0.0000 O   0  0  0  0  0  0  0  0  0  0  0  0
    0.5000    2.3000    0.0000 C   0  0  0  0  0  0  0  0  0  0  0  0
    1.3000    0.9208    0.0000 C   0  0  0  0  0  0  0  0  0  0  0  0
   -0.3000    1.8458    0.0000 C   0  0  0  0  0  0  0  0  0  0  0  0
    0.5000    0.4458    0.0000 C   0  0  0  0  0  0  0  0  0  0  0  0
   -5.0625    1.8458    0.0000 C   0  0  0  0  0  0  0  0  0  0  0  0
   -5.0625    0.9208    0.0000 C   0  0  0  0  0  0  0  0  0  0  0  0
   -5.9083    2.3125    0.0000 O   0  0  0  0  0  0  0  0  0  0  0  0
    0.5667   -0.5167    0.0000 C   0  0  0  0  0  0  0  0  0  0  0  0
   -6.7292    1.8458    0.0000 C   0  0  0  0  0  0  0  0  0  0  0  0
  2  1  1  0  0  0  0
  3  2  2  0  0  0  0
  4  5  1  0  0  0  0
  5  1  1  0  0  0  0
  6 11  1  0  0  0  0
  7  3  1  0  0  0  0
  8  1  1  0  0  0  0
  9  7  2  0  0  0  0
 10  4  1  0  0  0  0
 11 20  2  0  0  0  0
 12  7  1  0  0  0  0
 13  5  1  0  0  0  0
 14  6  1  0  0  0  0
 15  6  2  0  0  0  0
 16 10  1  0  0  0  0
 17  9  1  0  0  0  0
 18  8  2  0  0  0  0
 19 21  2  0  0  0  0
 20 22  1  0  0  0  0
 21 13  1  0  0  0  0
 22 13  2  0  0  0  0
 23 24  1  0  0  0  0
 24 12  2  0  0  0  0
 25 23  1  0  0  0  0
 26  8  1  0  0  0  0
 27 25  1  0  0  0  0
  4  3  1  0  0  0  0
 11 19  1  0  0  0  0
 16  9  1  0  0  0  0
 17 23  2  0  0  0  0
M  CHG  2   6   1  14  -1
M  END
>  <ID> (5210224)
5210224

>  <Supplier> (5210224)
ChemBridge

>  <clogP> (5210224)
5.420000000000000e+000

>  <RB> (5210224)
1

>  <tPSA> (5210224)
8.504000000000002e+001

>  <Hacc> (5210224)
5

>  <Hdon> (5210224)
0

>  <LogSw> (5210224)
-6.883000000000000e+000

>  <Group> (5210224)
1

>  <Core> (5210224)
196

$$$$
5210227
  -ISIS-  03310818212D

 25 28  0  0  0  0  0  0  0  0999 V2000
   -1.1000   -0.4792    0.0000 N   0  0  3  0  0  0  0  0  0  0  0  0
   -2.7000   -0.4792    0.0000 N   0  0  0  0  0  0  0  0  0  0  0  0
   -2.6833    0.4458    0.0000 C   0  0  0  0  0  0  0  0  0  0  0  0
   -1.8833    0.9208    0.0000 C   0  0  3  0  0  0  0  0  0  0  0  0
   -1.1000    0.4458    0.0000 C   0  0  3  0  0  0  0  0  0  0  0  0
   -3.4833    0.9208    0.0000 C   0  0  0  0  0  0  0  0  0  0  0  0
   -0.2833   -0.9500    0.0000 C   0  0  0  0  0  0  0  0  0  0  0  0
   -1.8833    1.8458    0.0000 C   0  0  0  0  0  0  0  0  0  0  0  0
   -3.4833    1.8458    0.0000 C   0  0  0  0  0  0  0  0  0  0  0  0
   -0.3000    0.9208    0.0000 C   0  0  0  0  0  0  0  0  0  0  0  0
   -4.2708    0.4458    0.0000 C   0  0  0  0  0  0  0  0  0  0  0  0
    0.5667   -0.5167    0.0000 O   0  0  0  0  0  0  0  0  0  0  0  0
   -2.6833    2.3000    0.0000 C   0  0  0  0  0  0  0  0  0  0  0  0
   -4.2708    2.3000    0.0000 C   0  0  0  0  0  0  0  0  0  0  0  0
   -0.3000    1.8458    0.0000 C   0  0  0  0  0  0  0  0  0  0  0  0
    0.5000    0.4458    0.0000 C   0  0  0  0  0  0  0  0  0  0  0  0
   -5.0625    0.9208    0.0000 C   0  0  0  0  0  0  0  0  0  0  0  0
    1.3167    1.8458    0.0000 C   0  0  0  0  0  0  0  0  0  0  0  0
   -5.0625    1.8458    0.0000 C   0  0  0  0  0  0  0  0  0  0  0  0
    1.3000    0.9208    0.0000 C   0  0  0  0  0  0  0  0  0  0  0  0
    0.5000    2.3000    0.0000 C   0  0  0  0  0  0  0  0  0  0  0  0
    2.1542    2.3000    0.0000 F   0  0  0  0  0  0  0  0  0  0  0  0
   -5.8833    0.4333    0.0000 O   0  0  0  0  0  0  0  0  0  0  0  0
   -0.2625   -1.9667    0.0000 C   0  0  0  0  0  0  0  0  0  0  0  0
   -5.8833   -0.5167    0.0000 C   0  0  0  0  0  0  0  0  0  0  0  0
  2  1  1  0  0  0  0
  3  2  2  0  0  0  0
  4  5  1  0  0  0  0
  5  1  1  0  0  0  0
  6  3  1  0  0  0  0
  7  1  1  0  0  0  0
  8  4  1  0  0  0  0
  9  6  2  0  0  0  0
 10  5  1  0  0  0  0
 11  6  1  0  0  0  0
 12  7  2  0  0  0  0
 13  8  1  0  0  0  0
 14  9  1  0  0  0  0
 15 10  1  0  0  0  0
 16 10  2  0  0  0  0
 17 11  2  0  0  0  0
 18 20  2  0  0  0  0
 19 17  1  0  0  0  0
 20 16  1  0  0  0  0
 21 15  2  0  0  0  0
 22 18  1  0  0  0  0
 23 17  1  0  0  0  0
 24  7  1  0  0  0  0
 25 23  1  0  0  0  0
  3  4  1  0  0  0  0
 21 18  1  0  0  0  0
  9 13  1  0  0  0  0
 14 19  2  0  0  0  0
M  END
>  <ID> (5210227)
5210227

>  <Supplier> (5210227)
ChemBridge

>  <clogP> (5210227)
5.819999999999999e+000

>  <RB> (5210227)
1

>  <tPSA> (5210227)
4.189999999999998e+001

>  <Hacc> (5210227)
3

>  <Hdon> (5210227)
0

>  <LogSw> (5210227)
-6.638000000000000e+000

>  <Group> (5210227)
3

>  <Core> (5210227)
196

$$$$
5210226
  -ISIS-  03310818212D

 30 33  0  0  0  0  0  0  0  0999 V2000
   -1.1000   -0.4792    0.0000 N   0  0  3  0  0  0  0  0  0  0  0  0
   -2.7000   -0.4792    0.0000 N   0  0  0  0  0  0  0  0  0  0  0  0
   -2.6833    0.4458    0.0000 C   0  0  0  0  0  0  0  0  0  0  0  0
   -1.8833    0.9208    0.0000 C   0  0  3  0  0  0  0  0  0  0  0  0
   -1.1000    0.4458    0.0000 C   0  0  3  0  0  0  0  0  0  0  0  0
   -0.2833   -0.9500    0.0000 C   0  0  0  0  0  0  0  0  0  0  0  0
    0.5667   -0.5167    0.0000 C   0  0  0  0  0  0  0  0  0  0  0  0
   -3.4833    0.9208    0.0000 C   0  0  0  0  0  0  0  0  0  0  0  0
   -3.4833    1.8458    0.0000 C   0  0  0  0  0  0  0  0  0  0  0  0
   -1.8833    1.8458    0.0000 C   0  0  0  0  0  0  0  0  0  0  0  0
    1.3667   -1.0375    0.0000 C   0  0  0  0  0  0  0  0  0  0  0  0
   -4.2708    0.4458    0.0000 C   0  0  0  0  0  0  0  0  0  0  0  0
   -0.3000    0.9208    0.0000 C   0  0  0  0  0  0  0  0  0  0  0  0
   -2.6833    2.3000    0.0000 C   0  0  0  0  0  0  0  0  0  0  0  0
   -4.2708    2.3000    0.0000 C   0  0  0  0  0  0  0  0  0  0  0  0
    2.2292   -0.6292    0.0000 O   0  0  0  0  0  0  0  0  0  0  0  0
   -0.3000    1.8458    0.0000 C   0  0  0  0  0  0  0  0  0  0  0  0
    0.5000    0.4458    0.0000 C   0  0  0  0  0  0  0  0  0  0  0  0
   -5.0625    1.8458    0.0000 C   0  0  0  0  0  0  0  0  0  0  0  0
   -5.0625    0.9208    0.0000 C   0  0  0  0  0  0  0  0  0  0  0  0
    1.3167    1.8458    0.0000 C   0  0  0  0  0  0  0  0  0  0  0  0
    1.3542   -2.0042    0.0000 O   0  0  0  0  0  0  0  0  0  0  0  0
    1.3000    0.9208    0.0000 C   0  0  0  0  0  0  0  0  0  0  0  0
    0.5000    2.3000    0.0000 C   0  0  0  0  0  0  0  0  0  0  0  0
    2.1542    2.3000    0.0000 F   0  0  0  0  0  0  0  0  0  0  0  0
   -0.2625   -1.9667    0.0000 C   0  0  0  0  0  0  0  0  0  0  0  0
   -5.9083    2.3125    0.0000 O   0  0  0  0  0  0  0  0  0  0  0  0
    2.1792   -2.4875    0.0000 C   0  0  0  0  0  0  0  0  0  0  0  0
   -6.7292    1.8458    0.0000 C   0  0  0  0  0  0  0  0  0  0  0  0
    2.9875   -2.0167    0.0000 C   0  0  0  0  0  0  0  0  0  0  0  0
  2  1  1  0  0  0  0
  3  2  2  0  0  0  0
  4  5  1  0  0  0  0
  5  1  1  0  0  0  0
  6  1  1  0  0  0  0
  7  6  2  0  0  0  0
  8  3  1  0  0  0  0
  9  8  2  0  0  0  0
 10  4  1  0  0  0  0
 11  7  1  0  0  0  0
 12  8  1  0  0  0  0
 13  5  1  0  0  0  0
 14 10  1  0  0  0  0
 15  9  1  0  0  0  0
 16 11  2  0  0  0  0
 17 13  1  0  0  0  0
 18 13  2  0  0  0  0
 19 20  1  0  0  0  0
 20 12  2  0  0  0  0
 21 23  2  0  0  0  0
 22 11  1  0  0  0  0
 23 18  1  0  0  0  0
 24 17  2  0  0  0  0
 25 21  1  0  0  0  0
 26  6  1  0  0  0  0
 27 19  1  0  0  0  0
 28 22  1  0  0  0  0
 29 27  1  0  0  0  0
 30 28  1  0  0  0  0
  4  3  1  0  0  0  0
 21 24  1  0  0  0  0
 14  9  1  0  0  0  0
 19 15  2  0  0  0  0
M  END
>  <ID> (5210226)
5210226

>  <Supplier> (5210226)
ChemBridge

>  <clogP> (5210226)
6.230000000000000e+000

>  <RB> (5210226)
3

>  <tPSA> (5210226)
5.113000000000000e+001

>  <Hacc> (5210226)
4

>  <Hdon> (5210226)
0

>  <LogSw> (5210226)
-7.498000000000000e+000

>  <Group> (5210226)
1

>  <Core> (5210226)
196

$$$$
5210221
  -ISIS-  03310818212D

 23 25  0  0  0  0  0  0  0  0999 V2000
    3.4000    0.8833    0.0000 N   0  3  0  0  0  0  0  0  0  0  0  0
   -0.6458   -0.6042    0.0000 C   0  0  0  0  0  0  0  0  0  0  0  0
   -1.4625   -1.0667    0.0000 C   0  0  0  0  0  0  0  0  0  0  0  0
   -2.2833   -0.6042    0.0000 C   0  0  0  0  0  0  0  0  0  0  0  0
   -2.2833    0.3500    0.0000 C   0  0  0  0  0  0  0  0  0  0  0  0
    0.1792   -1.0667    0.0000 C   0  0  0  0  0  0  0  0  0  0  0  0
    2.6000    0.3958    0.0000 C   0  0  0  0  0  0  0  0  0  0  0  0
   -3.0833   -1.0667    0.0000 C   0  0  0  0  0  0  0  0  0  0  0  0
    4.2792    0.5000    0.0000 O   0  5  0  0  0  0  0  0  0  0  0  0
    3.4375    1.8333    0.0000 O   0  0  0  0  0  0  0  0  0  0  0  0
   -0.6458    0.3500    0.0000 C   0  0  0  0  0  0  0  0  0  0  0  0
   -1.4625   -2.0042    0.0000 O   0  0  0  0  0  0  0  0  0  0  0  0
   -3.0833    0.8125    0.0000 C   0  0  0  0  0  0  0  0  0  0  0  0
   -1.4625    0.8125    0.0000 C   0  0  0  0  0  0  0  0  0  0  0  0
    0.9792   -0.5875    0.0000 C   0  0  0  0  0  0  0  0  0  0  0  0
    2.6292   -0.5542    0.0000 C   0  0  0  0  0  0  0  0  0  0  0  0
    1.7667    0.8500    0.0000 C   0  0  0  0  0  0  0  0  0  0  0  0
   -3.9000    0.3500    0.0000 C   0  0  0  0  0  0  0  0  0  0  0  0
   -3.9000   -0.6042    0.0000 C   0  0  0  0  0  0  0  0  0  0  0  0
    1.8042   -1.0375    0.0000 C   0  0  0  0  0  0  0  0  0  0  0  0
    0.9667    0.3500    0.0000 C   0  0  0  0  0  0  0  0  0  0  0  0
   -4.7208    0.8458    0.0000 O   0  0  0  0  0  0  0  0  0  0  0  0
   -5.5500    0.3958    0.0000 C   0  0  0  0  0  0  0  0  0  0  0  0
  2  6  2  0  0  0  0
  3  2  1  0  0  0  0
  4  3  1  0  0  0  0
  5 14  1  0  0  0  0
  6 15  1  0  0  0  0
  7  1  1  0  0  0  0
  8  4  1  0  0  0  0
  9  1  1  0  0  0  0
 10  1  2  0  0  0  0
 11  2  1  0  0  0  0
 12  3  2  0  0  0  0
 13  5  1  0  0  0  0
 14 11  1  0  0  0  0
 15 21  2  0  0  0  0
 16  7  1  0  0  0  0
 17  7  2  0  0  0  0
 18 13  2  0  0  0  0
 19  8  2  0  0  0  0
 20 16  2  0  0  0  0
 21 17  1  0  0  0  0
 22 18  1  0  0  0  0
 23 22  1  0  0  0  0
 15 20  1  0  0  0  0
  5  4  2  0  0  0  0
 18 19  1  0  0  0  0
M  CHG  2   1   1   9  -1
M  END
>  <ID> (5210221)
5210221

>  <Supplier> (5210221)
ChemBridge

>  <clogP> (5210221)
3.580000000000000e+000

>  <RB> (5210221)
1

>  <tPSA> (5210221)
6.944000000000000e+001

>  <Hacc> (5210221)
4

>  <Hdon> (5210221)
0

>  <LogSw> (5210221)
-4.903000000000001e+000

>  <Group> (5210221)
1

$$$$
5210223
  -ISIS-  03310818212D

 23 25  0  0  0  0  0  0  0  0999 V2000
    1.7500    1.7958    0.0000 N   0  3  0  0  0  0  0  0  0  0  0  0
   -1.4625   -1.0667    0.0000 C   0  0  0  0  0  0  0  0  0  0  0  0
   -0.6458   -0.6042    0.0000 C   0  0  0  0  0  0  0  0  0  0  0  0
   -2.2833   -0.6042    0.0000 C   0  0  0  0  0  0  0  0  0  0  0  0
    0.1792   -1.0667    0.0000 C   0  0  0  0  0  0  0  0  0  0  0  0
    1.7667    0.8500    0.0000 C   0  0  0  0  0  0  0  0  0  0  0  0
   -2.2833    0.3500    0.0000 C   0  0  0  0  0  0  0  0  0  0  0  0
    2.5042    2.3625    0.0000 O   0  5  0  0  0  0  0  0  0  0  0  0
    0.9542    2.2958    0.0000 O   0  0  0  0  0  0  0  0  0  0  0  0
   -3.0833   -1.0667    0.0000 C   0  0  0  0  0  0  0  0  0  0  0  0
   -0.6458    0.3500    0.0000 C   0  0  0  0  0  0  0  0  0  0  0  0
    0.9792   -0.5875    0.0000 C   0  0  0  0  0  0  0  0  0  0  0  0
   -1.4625   -2.0042    0.0000 O   0  0  0  0  0  0  0  0  0  0  0  0
    0.9667    0.3500    0.0000 C   0  0  0  0  0  0  0  0  0  0  0  0
   -1.4625    0.8125    0.0000 C   0  0  0  0  0  0  0  0  0  0  0  0
   -3.0833    0.8125    0.0000 C   0  0  0  0  0  0  0  0  0  0  0  0
   -3.9000   -0.6042    0.0000 C   0  0  0  0  0  0  0  0  0  0  0  0
   -3.9000    0.3500    0.0000 C   0  0  0  0  0  0  0  0  0  0  0  0
   -4.7208   -1.0792    0.0000 O   0  0  0  0  0  0  0  0  0  0  0  0
    2.6000    0.3958    0.0000 C   0  0  0  0  0  0  0  0  0  0  0  0
    2.6292   -0.5542    0.0000 C   0  0  0  0  0  0  0  0  0  0  0  0
    1.8042   -1.0375    0.0000 C   0  0  0  0  0  0  0  0  0  0  0  0
   -4.7208   -2.0042    0.0000 C   0  0  0  0  0  0  0  0  0  0  0  0
  2  3  1  0  0  0  0
  3  5  2  0  0  0  0
  4  2  1  0  0  0  0
  5 12  1  0  0  0  0
  6  1  1  0  0  0  0
  7 15  1  0  0  0  0
  8  1  1  0  0  0  0
  9  1  2  0  0  0  0
 10  4  1  0  0  0  0
 11  3  1  0  0  0  0
 12 14  2  0  0  0  0
 13  2  2  0  0  0  0
 14  6  1  0  0  0  0
 15 11  1  0  0  0  0
 16  7  1  0  0  0  0
 17 10  2  0  0  0  0
 18 16  2  0  0  0  0
 19 17  1  0  0  0  0
 20  6  2  0  0  0  0
 21 20  1  0  0  0  0
 22 21  2  0  0  0  0
 23 19  1  0  0  0  0
 22 12  1  0  0  0  0
  4  7  2  0  0  0  0
 18 17  1  0  0  0  0
M  CHG  2   1   1   8  -1
M  END
>  <ID> (5210223)
5210223

>  <Supplier> (5210223)
ChemBridge

>  <clogP> (5210223)
3.580000000000000e+000

>  <RB> (5210223)
1

>  <tPSA> (5210223)
6.944000000000000e+001

>  <Hacc> (5210223)
4

>  <Hdon> (5210223)
0

>  <LogSw> (5210223)
-4.903000000000001e+000

>  <Group> (5210223)
2

$$$$
7659537
  -ISIS-  03310818262D

 17 16  0  0  0  0  0  0  0  0999 V2000
    6.2667   -3.2667    0.0000 S   0  0  3  0  0  0  0  0  0  0  0  0
    5.5417   -2.8500    0.0000 C   0  0  0  0  0  0  0  0  0  0  0  0
    4.8375   -3.2542    0.0000 C   0  0  0  0  0  0  0  0  0  0  0  0
    5.5417   -2.0250    0.0000 C   0  0  0  0  0  0  0  0  0  0  0  0
    4.1250   -2.8500    0.0000 C   0  0  0  0  0  0  0  0  0  0  0  0
    4.8375   -1.6125    0.0000 C   0  0  0  0  0  0  0  0  0  0  0  0
    4.1250   -2.0250    0.0000 C   0  0  0  0  0  0  0  0  0  0  0  0
    6.9792   -3.6792    0.0000 O   0  5  0  0  0  0  0  0  0  0  0  0
    6.6792   -2.5500    0.0000 O   0  0  0  0  0  0  0  0  0  0  0  0
    5.8417   -3.9792    0.0000 O   0  0  0  0  0  0  0  0  0  0  0  0
    3.4042   -3.2667    0.0000 C   0  0  3  0  0  0  0  0  0  0  0  0
    7.9000   -3.7167    0.0000 Na  0  3  0  0  0  0  0  0  0  0  0  0
    6.2667   -1.6042    0.0000 C   0  0  0  0  0  0  0  0  0  0  0  0
    4.8375   -0.7917    0.0000 C   0  0  0  0  0  0  0  0  0  0  0  0
    3.8292   -3.9792    0.0000 C   0  0  0  0  0  0  0  0  0  0  0  0
    2.9917   -2.5500    0.0000 C   0  0  0  0  0  0  0  0  0  0  0  0
    2.6917   -3.6792    0.0000 C   0  0  0  0  0  0  0  0  0  0  0  0
  2  1  1  0  0  0  0
  3  2  2  0  0  0  0
  4  2  1  0  0  0  0
  5  3  1  0  0  0  0
  6  4  2  0  0  0  0
  7  6  1  0  0  0  0
  8  1  1  0  0  0  0
  9  1  2  0  0  0  0
 10  1  2  0  0  0  0
 11  5  1  0  0  0  0
 13  4  1  0  0  0  0
 14  6  1  0  0  0  0
 15 11  1  0  0  0  0
 16 11  1  0  0  0  0
 17 11  1  0  0  0  0
  7  5  2  0  0  0  0
M  CHG  2   8  -1  12   1
M  END
>  <ID> (7659537)
7659537

>  <Supplier> (7659537)
ChemBridge

>  <clogP> (7659537)
2.944000000000000e+000

>  <RB> (7659537)
4

>  <tPSA> (7659537)
5.720000000000000e+001

>  <Hacc> (7659537)
3

>  <Hdon> (7659537)
1

>  <LogSw> (7659537)
-3.482000000000000e+000

>  <Group> (7659537)
2

$$$$
6650115
  -ISIS-  03310818242D

 31 33  0  0  0  0  0  0  0  0999 V2000
    0.7000   -1.8667    0.0000 C   0  0  0  0  0  0  0  0  0  0  0  0
    0.4667   -1.4667    0.0000 C   0  0  0  0  0  0  0  0  0  0  0  0
    0.0500   -1.5667    0.0000 C   0  0  0  0  0  0  0  0  0  0  0  0
    1.1667   -1.9500    0.0000 N   0  0  0  0  0  0  0  0  0  0  0  0
    0.4042   -2.2042    0.0000 S   0  0  0  0  0  0  0  0  0  0  0  0
   -0.0125   -2.0500    0.0000 C   0  0  0  0  0  0  0  0  0  0  0  0
    1.4500   -1.5667    0.0000 C   0  0  0  0  0  0  0  0  0  0  0  0
    0.6500   -1.0500    0.0000 C   0  0  0  0  0  0  0  0  0  0  0  0
    1.9042   -1.6500    0.0000 C   0  0  0  0  0  0  0  0  0  0  0  0
    2.1875   -1.2667    0.0000 C   0  0  0  0  0  0  0  0  0  0  0  0
   -0.3125   -1.2667    0.0000 C   0  0  0  0  0  0  0  0  0  0  0  0
    2.6500   -1.3500    0.0000 C   0  0  0  0  0  0  0  0  0  0  0  0
    1.2667   -1.1500    0.0000 O   0  0  0  0  0  0  0  0  0  0  0  0
    2.8500   -1.7500    0.0000 C   0  0  0  0  0  0  0  0  0  0  0  0
    0.3667   -0.6500    0.0000 O   0  0  0  0  0  0  0  0  0  0  0  0
    2.1000   -2.0667    0.0000 C   0  0  0  0  0  0  0  0  0  0  0  0
    2.5500   -2.1500    0.0000 C   0  0  0  0  0  0  0  0  0  0  0  0
   -0.7708   -1.4500    0.0000 C   0  0  0  0  0  0  0  0  0  0  0  0
   -0.2333   -0.8042    0.0000 C   0  0  0  0  0  0  0  0  0  0  0  0
    1.1042   -0.9667    0.0000 O   0  0  0  0  0  0  0  0  0  0  0  0
   -1.0333   -0.7000    0.0000 C   0  0  0  0  0  0  0  0  0  0  0  0
    2.9667   -0.9500    0.0000 O   0  0  0  0  0  0  0  0  0  0  0  0
   -1.1333   -1.1500    0.0000 C   0  0  0  0  0  0  0  0  0  0  0  0
   -0.6125   -0.5042    0.0000 C   0  0  0  0  0  0  0  0  0  0  0  0
    3.3042   -1.8000    0.0000 O   0  0  0  0  0  0  0  0  0  0  0  0
   -1.4125   -0.3667    0.0000 O   0  0  0  0  0  0  0  0  0  0  0  0
    1.3000   -0.5500    0.0000 C   0  0  0  0  0  0  0  0  0  0  0  0
    3.4500   -1.0500    0.0000 C   0  0  0  0  0  0  0  0  0  0  0  0
    3.5667   -1.4042    0.0000 C   0  0  0  0  0  0  0  0  0  0  0  0
   -1.8500   -0.5500    0.0000 C   0  0  0  0  0  0  0  0  0  0  0  0
    1.7500   -0.4667    0.0000 C   0  0  0  0  0  0  0  0  0  0  0  0
  2  1  2  0  0  0  0
  3  2  1  0  0  0  0
  4  1  1  0  0  0  0
  5  1  1  0  0  0  0
  6  5  1  0  0  0  0
  7  4  1  0  0  0  0
  8  2  1  0  0  0  0
  9  7  1  0  0  0  0
 10  9  1  0  0  0  0
 11  3  1  0  0  0  0
 12 10  2  0  0  0  0
 13  7  2  0  0  0  0
 14 17  2  0  0  0  0
 15  8  2  0  0  0  0
 16  9  2  0  0  0  0
 17 16  1  0  0  0  0
 18 11  1  0  0  0  0
 19 11  2  0  0  0  0
 20  8  1  0  0  0  0
 21 24  2  0  0  0  0
 22 12  1  0  0  0  0
 23 18  2  0  0  0  0
 24 19  1  0  0  0  0
 25 14  1  0  0  0  0
 26 21  1  0  0  0  0
 27 20  1  0  0  0  0
 28 22  1  0  0  0  0
 29 25  1  0  0  0  0
 30 26  1  0  0  0  0
 31 27  1  0  0  0  0
  3  6  2  0  0  0  0
 21 23  1  0  0  0  0
 14 12  1  0  0  0  0
M  END
>  <ID> (6650115)
6650115

>  <Supplier> (6650115)
ChemBridge

>  <clogP> (6650115)
3.980000000000000e+000

>  <RB> (6650115)
4

>  <tPSA> (6650115)
8.309000000000000e+001

>  <Hacc> (6650115)
6

>  <Hdon> (6650115)
1

>  <LogSw> (6650115)
-5.816999999999998e+000

>  <Group> (6650115)
1

>  <Core> (6650115)
098

$$$$
6650116
  -ISIS-  03310818242D

 23 25  0  0  0  0  0  0  0  0999 V2000
   -1.7625    0.8625    0.0000 C   0  0  0  0  0  0  0  0  0  0  0  0
   -1.7625   -0.0167    0.0000 C   0  0  0  0  0  0  0  0  0  0  0  0
   -0.2625    0.8625    0.0000 N   0  0  3  0  0  0  0  0  0  0  0  0
   -0.2625   -0.0167    0.0000 C   0  0  0  0  0  0  0  0  0  0  0  0
   -1.0208   -0.4375    0.0000 N   0  0  0  0  0  0  0  0  0  0  0  0
   -1.0208    1.2833    0.0000 C   0  0  0  0  0  0  0  0  0  0  0  0
   -2.5625   -0.2792    0.0000 S   0  0  0  0  0  0  0  0  0  0  0  0
   -2.5625    1.1208    0.0000 C   0  0  0  0  0  0  0  0  0  0  0  0
   -3.0625    0.4208    0.0000 C   0  0  0  0  0  0  0  0  0  0  0  0
    0.5000   -0.4792    0.0000 S   0  0  0  0  0  0  0  0  0  0  0  0
    0.4792    1.3000    0.0000 C   0  0  0  0  0  0  0  0  0  0  0  0
   -1.0208    2.1458    0.0000 O   0  0  0  0  0  0  0  0  0  0  0  0
    2.0042   -0.5292    0.0000 C   0  0  0  0  0  0  0  0  0  0  0  0
    1.2542   -0.0667    0.0000 C   0  0  0  0  0  0  0  0  0  0  0  0
    2.7667   -0.1167    0.0000 C   0  0  0  0  0  0  0  0  0  0  0  0
   -2.8458    1.9458    0.0000 C   0  0  0  0  0  0  0  0  0  0  0  0
   -3.9208    0.4208    0.0000 C   0  0  0  0  0  0  0  0  0  0  0  0
    0.4792    2.1625    0.0000 C   0  0  0  0  0  0  0  0  0  0  0  0
    1.2167    0.8625    0.0000 C   0  0  0  0  0  0  0  0  0  0  0  0
    2.0042   -1.3875    0.0000 C   0  0  0  0  0  0  0  0  0  0  0  0
    1.2167    2.5833    0.0000 C   0  0  0  0  0  0  0  0  0  0  0  0
    1.9792    1.2833    0.0000 C   0  0  0  0  0  0  0  0  0  0  0  0
    1.9792    2.1500    0.0000 C   0  0  0  0  0  0  0  0  0  0  0  0
  2  1  2  0  0  0  0
  3  6  1  0  0  0  0
  4  3  1  0  0  0  0
  5  2  1  0  0  0  0
  6  1  1  0  0  0  0
  7  2  1  0  0  0  0
  8  1  1  0  0  0  0
  9  8  2  0  0  0  0
 10  4  1  0  0  0  0
 11  3  1  0  0  0  0
 12  6  2  0  0  0  0
 13 14  1  0  0  0  0
 14 10  1  0  0  0  0
 15 13  2  0  0  0  0
 16  8  1  0  0  0  0
 17  9  1  0  0  0  0
 18 11  1  0  0  0  0
 19 11  2  0  0  0  0
 20 13  1  0  0  0  0
 21 18  2  0  0  0  0
 22 19  1  0  0  0  0
 23 22  2  0  0  0  0
  9  7  1  0  0  0  0
  4  5  2  0  0  0  0
 23 21  1  0  0  0  0
M  END
>  <ID> (6650116)
6650116

>  <Supplier> (6650116)
ChemBridge

>  <clogP> (6650116)
4.780000000000000e+000

>  <RB> (6650116)
4

>  <tPSA> (6650116)
3.489000000000000e+001

>  <Hacc> (6650116)
2

>  <Hdon> (6650116)
0

>  <LogSw> (6650116)
-5.779000000000002e+000

>  <Group> (6650116)
3

>  <Core> (6650116)
041

$$$$
6650117
  -ISIS-  03310818242D

 28 30  0  0  0  0  0  0  0  0999 V2000
    1.2542   -1.6792    0.0000 S   0  0  3  0  0  0  0  0  0  0  0  0
   -1.2833    1.6625    0.0000 S   0  0  3  0  0  0  0  0  0  0  0  0
    0.4042   -1.1875    0.0000 C   0  0  0  0  0  0  0  0  0  0  0  0
   -0.4333    1.1958    0.0000 N   0  0  3  0  0  0  0  0  0  0  0  0
   -0.4333    0.2208    0.0000 C   0  0  0  0  0  0  0  0  0  0  0  0
    2.0875   -2.1542    0.0000 N   0  0  3  0  0  0  0  0  0  0  0  0
    0.4042   -0.2500    0.0000 C   0  0  0  0  0  0  0  0  0  0  0  0
   -0.4333   -1.6542    0.0000 C   0  0  0  0  0  0  0  0  0  0  0  0
   -1.2625   -0.2500    0.0000 C   0  0  0  0  0  0  0  0  0  0  0  0
    0.7875   -2.5042    0.0000 O   0  0  0  0  0  0  0  0  0  0  0  0
    1.7292   -0.8375    0.0000 O   0  0  0  0  0  0  0  0  0  0  0  0
   -1.7500    0.8125    0.0000 O   0  0  0  0  0  0  0  0  0  0  0  0
   -0.8125    2.4958    0.0000 O   0  0  0  0  0  0  0  0  0  0  0  0
   -1.2625   -1.1875    0.0000 C   0  0  0  0  0  0  0  0  0  0  0  0
   -2.1333    2.1333    0.0000 C   0  0  0  0  0  0  0  0  0  0  0  0
    3.7542   -3.0792    0.0000 O   0  0  0  0  0  0  0  0  0  0  0  0
    2.9042   -1.6542    0.0000 C   0  0  0  0  0  0  0  0  0  0  0  0
    2.1042   -3.1000    0.0000 C   0  0  0  0  0  0  0  0  0  0  0  0
    0.3875    1.6625    0.0000 C   0  0  0  0  0  0  0  0  0  0  0  0
   -0.4333   -2.6292    0.0000 C   0  0  0  0  0  0  0  0  0  0  0  0
   -2.1125    0.2500    0.0000 C   0  0  0  0  0  0  0  0  0  0  0  0
    3.7375   -2.1292    0.0000 C   0  0  0  0  0  0  0  0  0  0  0  0
    2.9375   -3.5667    0.0000 C   0  0  0  0  0  0  0  0  0  0  0  0
   -2.1333    3.1083    0.0000 C   0  0  0  0  0  0  0  0  0  0  0  0
   -2.9625    1.6625    0.0000 C   0  0  0  0  0  0  0  0  0  0  0  0
   -3.7833    2.1625    0.0000 C   0  0  0  0  0  0  0  0  0  0  0  0
   -2.9625    3.5708    0.0000 C   0  0  0  0  0  0  0  0  0  0  0  0
   -3.7833    3.1083    0.0000 C   0  0  0  0  0  0  0  0  0  0  0  0
  2  4  1  0  0  0  0
  3  1  1  0  0  0  0
  4  5  1  0  0  0  0
  5  7  1  0  0  0  0
  6  1  1  0  0  0  0
  7  3  2  0  0  0  0
  8  3  1  0  0  0  0
  9 14  1  0  0  0  0
 10  1  2  0  0  0  0
 11  1  2  0  0  0  0
 12  2  2  0  0  0  0
 13  2  2  0  0  0  0
 14  8  2  0  0  0  0
 15  2  1  0  0  0  0
 16 23  1  0  0  0  0
 17  6  1  0  0  0  0
 18  6  1  0  0  0  0
 19  4  1  0  0  0  0
 20  8  1  0  0  0  0
 21  9  1  0  0  0  0
 22 17  1  0  0  0  0
 23 18  1  0  0  0  0
 24 15  2  0  0  0  0
 25 15  1  0  0  0  0
 26 25  2  0  0  0  0
 27 24  1  0  0  0  0
 28 26  1  0  0  0  0
 16 22  1  0  0  0  0
  5  9  2  0  0  0  0
 27 28  2  0  0  0  0
M  END
>  <ID> (6650117)
6650117

>  <Supplier> (6650117)
ChemBridge

>  <clogP> (6650117)
2.840000000000000e+000

>  <RB> (6650117)
3

>  <tPSA> (6650117)
8.399000000000002e+001

>  <Hacc> (6650117)
6

>  <Hdon> (6650117)
0

>  <LogSw> (6650117)
-4.720000000000000e+000

>  <Group> (6650117)
2

>  <Core> (6650117)
516

$$$$
5362700
  -ISIS-  03310818222D

 21 23  0  0  0  0  0  0  0  0999 V2000
    0.1667   -0.3375    0.0000 N   0  0  3  0  0  0  0  0  0  0  0  0
   -1.2958   -0.3375    0.0000 N   0  0  0  0  0  0  0  0  0  0  0  0
    0.1667    0.4708    0.0000 C   0  0  0  0  0  0  0  0  0  0  0  0
    3.5292   -0.3375    0.0000 N   0  3  0  0  0  0  0  0  0  0  0  0
   -1.2958    0.4708    0.0000 C   0  0  0  0  0  0  0  0  0  0  0  0
   -0.5625    0.9708    0.0000 C   0  0  0  0  0  0  0  0  0  0  0  0
    1.0042   -0.8000    0.0000 C   0  0  0  0  0  0  0  0  0  0  0  0
    1.8500   -0.3042    0.0000 C   0  0  0  0  0  0  0  0  0  0  0  0
    2.7000   -0.8000    0.0000 C   0  0  0  0  0  0  0  0  0  0  0  0
    4.4000   -0.7542    0.0000 O   0  5  0  0  0  0  0  0  0  0  0  0
    3.6042    0.6125    0.0000 O   0  0  0  0  0  0  0  0  0  0  0  0
    0.7875    0.9000    0.0000 O   0  0  0  0  0  0  0  0  0  0  0  0
   -2.1708    0.8458    0.0000 C   0  0  0  0  0  0  0  0  0  0  0  0
    1.0167   -1.7542    0.0000 C   0  0  0  0  0  0  0  0  0  0  0  0
    2.7000   -1.7542    0.0000 C   0  0  0  0  0  0  0  0  0  0  0  0
    1.8667   -2.2500    0.0000 C   0  0  0  0  0  0  0  0  0  0  0  0
   -2.2833    1.8000    0.0000 C   0  0  0  0  0  0  0  0  0  0  0  0
   -2.9500    0.2708    0.0000 C   0  0  0  0  0  0  0  0  0  0  0  0
   -3.1708    2.1958    0.0000 C   0  0  0  0  0  0  0  0  0  0  0  0
   -3.8500    0.6625    0.0000 C   0  0  0  0  0  0  0  0  0  0  0  0
   -3.9583    1.6125    0.0000 C   0  0  0  0  0  0  0  0  0  0  0  0
  2  1  1  0  0  0  0
  3  1  1  0  0  0  0
  4  9  1  0  0  0  0
  5  2  2  0  0  0  0
  6  3  1  0  0  0  0
  7  1  1  0  0  0  0
  8  7  1  0  0  0  0
  9  8  2  0  0  0  0
 10  4  1  0  0  0  0
 11  4  2  0  0  0  0
 12  3  2  0  0  0  0
 13  5  1  0  0  0  0
 14  7  2  0  0  0  0
 15 16  2  0  0  0  0
 16 14  1  0  0  0  0
 17 13  2  0  0  0  0
 18 13  1  0  0  0  0
 19 17  1  0  0  0  0
 20 18  2  0  0  0  0
 21 20  1  0  0  0  0
  5  6  1  0  0  0  0
 15  9  1  0  0  0  0
 19 21  2  0  0  0  0
M  CHG  2   4   1  10  -1
M  END
>  <ID> (5362700)
5362700

>  <Supplier> (5362700)
ChemBridge

>  <clogP> (5362700)
4.040000000000000e+000

>  <RB> (5362700)
2

>  <tPSA> (5362700)
7.581000000000000e+001

>  <Hacc> (5362700)
4

>  <Hdon> (5362700)
0

>  <LogSw> (5362700)
-5.092000000000000e+000

>  <Group> (5362700)
3

>  <Core> (5362700)
198

$$$$
5362701
  -ISIS-  03310818222D

 19 20  0  0  0  0  0  0  0  0999 V2000
    2.4042   -0.2792    0.0000 N   0  0  0  0  0  0  0  0  0  0  0  0
    1.4667    0.2625    0.0000 C   0  0  0  0  0  0  0  0  0  0  0  0
   -0.4125    0.2833    0.0000 C   0  0  0  0  0  0  0  0  0  0  0  0
    0.5292   -0.2792    0.0000 C   0  0  0  0  0  0  0  0  0  0  0  0
    3.3500    0.2625    0.0000 C   0  0  0  0  0  0  0  0  0  0  0  0
   -1.3708   -0.2792    0.0000 C   0  0  0  0  0  0  0  0  0  0  0  0
    1.4667    1.3125    0.0000 O   0  0  0  0  0  0  0  0  0  0  0  0
   -2.3125    0.2625    0.0000 C   0  0  0  0  0  0  0  0  0  0  0  0
    3.3500    1.3458    0.0000 C   0  0  0  0  0  0  0  0  0  0  0  0
   -2.3208    1.3333    0.0000 Cl  0  0  0  0  0  0  0  0  0  0  0  0
    4.2667   -0.2792    0.0000 C   0  0  0  0  0  0  0  0  0  0  0  0
   -1.3708   -1.3542    0.0000 C   0  0  0  0  0  0  0  0  0  0  0  0
    2.4042    1.9000    0.0000 C   0  0  0  0  0  0  0  0  0  0  0  0
   -3.2333   -0.2792    0.0000 C   0  0  0  0  0  0  0  0  0  0  0  0
    4.2875    1.8833    0.0000 C   0  0  0  0  0  0  0  0  0  0  0  0
    5.2042    0.2625    0.0000 C   0  0  0  0  0  0  0  0  0  0  0  0
   -2.3125   -1.9000    0.0000 C   0  0  0  0  0  0  0  0  0  0  0  0
    5.2292    1.3458    0.0000 C   0  0  0  0  0  0  0  0  0  0  0  0
   -3.2333   -1.3542    0.0000 C   0  0  0  0  0  0  0  0  0  0  0  0
  2  1  1  0  0  0  0
  3  4  2  0  0  0  0
  4  2  1  0  0  0  0
  5  1  1  0  0  0  0
  6  3  1  0  0  0  0
  7  2  2  0  0  0  0
  8  6  2  0  0  0  0
  9  5  2  0  0  0  0
 10  8  1  0  0  0  0
 11  5  1  0  0  0  0
 12  6  1  0  0  0  0
 13  9  1  0  0  0  0
 14  8  1  0  0  0  0
 15  9  1  0  0  0  0
 16 11  2  0  0  0  0
 17 12  2  0  0  0  0
 18 16  1  0  0  0  0
 19 17  1  0  0  0  0
 15 18  2  0  0  0  0
 14 19  2  0  0  0  0
M  END
>  <ID> (5362701)
5362701

>  <Supplier> (5362701)
ChemBridge

>  <clogP> (5362701)
4.220000000000000e+000

>  <RB> (5362701)
3

>  <tPSA> (5362701)
2.910000000000000e+001

>  <Hacc> (5362701)
1

>  <Hdon> (5362701)
1

>  <LogSw> (5362701)
-4.786000000000001e+000

>  <Group> (5362701)
1

>  <Core> (5362701)
435

$$$$
7501590
  -ISIS-  03310818262D

 22 23  0  0  0  0  0  0  0  0999 V2000
    2.4167   -0.2500    0.0000 C   0  0  0  0  0  0  0  0  0  0  0  0
    3.0667   -0.6250    0.0000 N   0  0  0  0  0  0  0  0  0  0  0  0
    3.7167   -0.2500    0.0000 C   0  0  0  0  0  0  0  0  0  0  0  0
    5.0167   -0.2500    0.0000 C   0  0  0  0  0  0  0  0  0  0  0  0
    1.7667   -0.6250    0.0000 C   0  0  0  0  0  0  0  0  0  0  0  0
    4.3667   -0.6250    0.0000 N   0  0  0  0  0  0  0  0  0  0  0  0
    5.6667   -0.6250    0.0000 C   0  0  0  0  0  0  0  0  0  0  0  0
    5.0167    0.5083    0.0000 C   0  0  0  0  0  0  0  0  0  0  0  0
    5.6667    0.8833    0.0000 C   0  0  0  0  0  0  0  0  0  0  0  0
    6.3167   -0.2500    0.0000 C   0  0  0  0  0  0  0  0  0  0  0  0
    3.7167    0.5000    0.0000 S   0  0  0  0  0  0  0  0  0  0  0  0
    6.3167    0.5083    0.0000 C   0  0  0  0  0  0  0  0  0  0  0  0
    1.1167   -0.2500    0.0000 C   0  0  0  0  0  0  0  0  0  0  0  0
    2.4167    0.5000    0.0000 O   0  0  0  0  0  0  0  0  0  0  0  0
    4.3667    0.8833    0.0000 Cl  0  0  0  0  0  0  0  0  0  0  0  0
    5.6667   -1.3750    0.0000 Cl  0  0  0  0  0  0  0  0  0  0  0  0
    1.1167    0.5000    0.0000 F   0  0  0  0  0  0  0  0  0  0  0  0
    6.9667    0.8833    0.0000 Cl  0  0  0  0  0  0  0  0  0  0  0  0
    1.7667   -1.3750    0.0000 C   0  0  0  0  0  0  0  0  0  0  0  0
    0.4667   -0.6250    0.0000 C   0  0  0  0  0  0  0  0  0  0  0  0
    1.1167   -1.7500    0.0000 C   0  0  0  0  0  0  0  0  0  0  0  0
    0.4667   -1.3750    0.0000 C   0  0  0  0  0  0  0  0  0  0  0  0
  2  1  1  0  0  0  0
  3  2  1  0  0  0  0
  4  6  1  0  0  0  0
  5  1  1  0  0  0  0
  6  3  1  0  0  0  0
  7  4  2  0  0  0  0
  8  4  1  0  0  0  0
  9  8  2  0  0  0  0
 10  7  1  0  0  0  0
 11  3  2  0  0  0  0
 12  9  1  0  0  0  0
 13  5  1  0  0  0  0
 14  1  2  0  0  0  0
 15  8  1  0  0  0  0
 16  7  1  0  0  0  0
 17 13  1  0  0  0  0
 18 12  1  0  0  0  0
 19  5  2  0  0  0  0
 20 13  2  0  0  0  0
 21 19  1  0  0  0  0
 22 21  2  0  0  0  0
 20 22  1  0  0  0  0
 10 12  2  0  0  0  0
M  END
>  <ID> (7501590)
7501590

>  <Supplier> (7501590)
ChemBridge

>  <clogP> (7501590)
3.766000000000000e+000

>  <RB> (7501590)
2

>  <tPSA> (7501590)
4.113000000000000e+001

>  <Hacc> (7501590)
1

>  <Hdon> (7501590)
2

>  <LogSw> (7501590)
-6.738000000000000e+000

>  <Group> (7501590)
1

>  <Core> (7501590)
071

$$$$
6650113
  -ISIS-  03310818242D

 24 26  0  0  0  0  0  0  0  0999 V2000
    1.4167   -0.3750    0.0000 S   0  0  3  0  0  0  0  0  0  0  0  0
    4.9875   -1.5917    0.0000 N   0  0  0  0  0  0  0  0  0  0  0  0
    5.7042   -2.0125    0.0000 C   0  0  0  0  0  0  0  0  0  0  0  0
    5.7000   -2.8375    0.0000 N   0  0  3  0  0  0  0  0  0  0  0  0
    4.2792   -2.0125    0.0000 C   0  0  0  0  0  0  0  0  0  0  0  0
    4.2792   -2.8375    0.0000 C   0  0  0  0  0  0  0  0  0  0  0  0
    6.4167   -1.6000    0.0000 C   0  0  0  0  0  0  0  0  0  0  0  0
    2.1292   -0.7792    0.0000 C   0  0  0  0  0  0  0  0  0  0  0  0
    0.7042    0.0375    0.0000 N   0  0  3  0  0  0  0  0  0  0  0  0
    1.0042   -1.0917    0.0000 O   0  0  0  0  0  0  0  0  0  0  0  0
    1.8292    0.3375    0.0000 O   0  0  0  0  0  0  0  0  0  0  0  0
    6.4125   -3.2500    0.0000 C   0  0  0  0  0  0  0  0  0  0  0  0
    3.5667   -1.6000    0.0000 C   0  0  0  0  0  0  0  0  0  0  0  0
    7.1292   -2.8417    0.0000 C   0  0  0  0  0  0  0  0  0  0  0  0
    7.1292   -2.0167    0.0000 C   0  0  0  0  0  0  0  0  0  0  0  0
    2.8500   -0.3667    0.0000 C   0  0  0  0  0  0  0  0  0  0  0  0
    2.1417   -1.6125    0.0000 C   0  0  0  0  0  0  0  0  0  0  0  0
    3.5667   -0.7792    0.0000 C   0  0  0  0  0  0  0  0  0  0  0  0
    2.8542   -2.0167    0.0000 C   0  0  0  0  0  0  0  0  0  0  0  0
    6.4167   -0.7750    0.0000 C   0  0  0  0  0  0  0  0  0  0  0  0
   -0.0125   -0.3667    0.0000 C   0  0  0  0  0  0  0  0  0  0  0  0
    0.7042    0.8625    0.0000 C   0  0  0  0  0  0  0  0  0  0  0  0
   -0.0125    1.2833    0.0000 C   0  0  0  0  0  0  0  0  0  0  0  0
   -0.7250    0.0458    0.0000 C   0  0  0  0  0  0  0  0  0  0  0  0
  2  5  1  0  0  0  0
  3  2  2  0  0  0  0
  4  6  1  0  0  0  0
  5 13  1  0  0  0  0
  6  5  2  0  0  0  0
  7  3  1  0  0  0  0
  8  1  1  0  0  0  0
  9  1  1  0  0  0  0
 10  1  2  0  0  0  0
 11  1  2  0  0  0  0
 12  4  1  0  0  0  0
 13 19  1  0  0  0  0
 14 12  2  0  0  0  0
 15  7  2  0  0  0  0
 16  8  2  0  0  0  0
 17  8  1  0  0  0  0
 18 16  1  0  0  0  0
 19 17  2  0  0  0  0
 20  7  1  0  0  0  0
 21  9  1  0  0  0  0
 22  9  1  0  0  0  0
 23 22  1  0  0  0  0
 24 21  1  0  0  0  0
 18 13  2  0  0  0  0
  4  3  1  0  0  0  0
 15 14  1  0  0  0  0
M  END
>  <ID> (6650113)
6650113

>  <Supplier> (6650113)
ChemBridge

>  <clogP> (6650113)
4.050000000000000e+000

>  <RB> (6650113)
2

>  <tPSA> (6650113)
5.468000000000000e+001

>  <Hacc> (6650113)
5

>  <Hdon> (6650113)
0

>  <LogSw> (6650113)
-5.162999999999998e+000

>  <Group> (6650113)
3

$$$$
5650415
  -ISIS-  03310818222D

 25 27  0  0  0  0  0  0  0  0999 V2000
    2.3542   -1.8000    0.0000 C   0  0  0  0  0  0  0  0  0  0  0  0
    1.7042   -1.4292    0.0000 N   0  3  0  0  0  0  0  0  0  0  0  0
    6.3375   -2.5500    0.0000 N   0  0  0  0  0  0  0  0  0  0  0  0
    6.2542   -1.8042    0.0000 C   0  0  0  0  0  0  0  0  0  0  0  0
    2.3542   -2.5542    0.0000 C   0  0  0  0  0  0  0  0  0  0  0  0
    1.7042   -2.9292    0.0000 N   0  0  3  0  0  0  0  0  0  0  0  0
    7.0667   -2.7042    0.0000 C   0  0  0  0  0  0  0  0  0  0  0  0
    6.9500   -1.5000    0.0000 S   0  0  0  0  0  0  0  0  0  0  0  0
    5.6042   -1.4292    0.0000 N   0  0  0  0  0  0  0  0  0  0  0  0
    4.9542   -1.8000    0.0000 N   0  0  0  0  0  0  0  0  0  0  0  0
    3.0042   -1.4167    0.0000 C   0  0  0  0  0  0  0  0  0  0  0  0
    3.0042   -2.9292    0.0000 C   0  0  0  0  0  0  0  0  0  0  0  0
    1.7042   -0.6792    0.0000 O   0  5  0  0  0  0  0  0  0  0  0  0
    1.0542   -1.8042    0.0000 O   0  0  0  0  0  0  0  0  0  0  0  0
    1.7042   -3.6792    0.0000 C   0  0  0  0  0  0  0  0  0  0  0  0
    1.0542   -2.5542    0.0000 C   0  0  0  0  0  0  0  0  0  0  0  0
    7.3792   -3.3875    0.0000 O   0  0  0  0  0  0  0  0  0  0  0  0
    7.4500   -2.0542    0.0000 C   0  0  0  0  0  0  0  0  0  0  0  0
    4.3042   -1.4292    0.0000 C   0  0  0  0  0  0  0  0  0  0  0  0
    3.6542   -1.8000    0.0000 C   0  0  0  0  0  0  0  0  0  0  0  0
    3.6542   -2.5542    0.0000 C   0  0  0  0  0  0  0  0  0  0  0  0
    1.0542   -4.0542    0.0000 C   0  0  0  0  0  0  0  0  0  0  0  0
    0.4042   -2.9292    0.0000 C   0  0  0  0  0  0  0  0  0  0  0  0
    0.4042   -3.6792    0.0000 C   0  0  3  0  0  0  0  0  0  0  0  0
   -0.2333   -4.0542    0.0000 C   0  0  0  0  0  0  0  0  0  0  0  0
  2  1  1  0  0  0  0
  3  4  1  0  0  0  0
  4  9  2  0  0  0  0
  5  1  1  0  0  0  0
  6  5  1  0  0  0  0
  7  3  1  0  0  0  0
  8  4  1  0  0  0  0
  9 10  1  0  0  0  0
 10 19  2  0  0  0  0
 11  1  2  0  0  0  0
 12  5  2  0  0  0  0
 13  2  1  0  0  0  0
 14  2  2  0  0  0  0
 15  6  1  0  0  0  0
 16  6  1  0  0  0  0
 17  7  2  0  0  0  0
 18  8  1  0  0  0  0
 19 20  1  0  0  0  0
 20 11  1  0  0  0  0
 21 20  2  0  0  0  0
 22 15  1  0  0  0  0
 23 16  1  0  0  0  0
 24 23  1  0  0  0  0
 25 24  1  0  0  0  0
 21 12  1  0  0  0  0
 22 24  1  0  0  0  0
 18  7  1  0  0  0  0
M  CHG  2   2   1  13  -1
M  END
>  <ID> (5650415)
5650415

>  <Supplier> (5650415)
ChemBridge

>  <clogP> (5650415)
4.170000000000000e+000

>  <RB> (5650415)
3

>  <tPSA> (5650415)
1.002000000000000e+002

>  <Hacc> (5650415)
5

>  <Hdon> (5650415)
1

>  <LogSw> (5650415)
-5.786000000000001e+000

>  <Group> (5650415)
1

$$$$
9133437
  -ISIS-  03310818292D

 23 25  0  0  0  0  0  0  0  0999 V2000
    2.1917    1.5958    0.0000 N   0  0  3  0  0  0  0  0  0  0  0  0
    2.1917    0.8458    0.0000 C   0  0  0  0  0  0  0  0  0  0  0  0
    2.8500    1.9708    0.0000 C   0  0  0  0  0  0  0  0  0  0  0  0
    3.5000    1.5958    0.0000 C   0  0  0  0  0  0  0  0  0  0  0  0
    1.4875    1.8250    0.0000 C   0  0  0  0  0  0  0  0  0  0  0  0
    1.4875    0.6125    0.0000 S   0  0  0  0  0  0  0  0  0  0  0  0
    2.8500    0.4708    0.0000 N   0  0  0  0  0  0  0  0  0  0  0  0
    1.0417    1.2208    0.0000 C   0  0  0  0  0  0  0  0  0  0  0  0
    3.5000    0.8458    0.0000 C   0  0  0  0  0  0  0  0  0  0  0  0
    4.1417    1.9708    0.0000 C   0  0  0  0  0  0  0  0  0  0  0  0
    2.8500    2.7208    0.0000 O   0  0  0  0  0  0  0  0  0  0  0  0
    4.1417    2.7208    0.0000 O   0  0  0  0  0  0  0  0  0  0  0  0
    6.7417    1.9708    0.0000 C   0  0  0  0  0  0  0  0  0  0  0  0
    4.7917    1.5958    0.0000 N   0  0  0  0  0  0  0  0  0  0  0  0
    7.3917    1.5958    0.0000 C   0  0  0  0  0  0  0  0  0  0  0  0
    1.2542    2.5458    0.0000 C   0  0  0  0  0  0  0  0  0  0  0  0
    0.2917    1.2208    0.0000 C   0  0  0  0  0  0  0  0  0  0  0  0
    5.4417    1.9708    0.0000 C   0  0  0  0  0  0  0  0  0  0  0  0
    6.0917    1.5958    0.0000 C   0  0  0  0  0  0  0  0  0  0  0  0
    6.7417    2.7208    0.0000 C   0  0  0  0  0  0  0  0  0  0  0  0
    8.0417    1.9708    0.0000 C   0  0  0  0  0  0  0  0  0  0  0  0
    7.3917    3.0958    0.0000 C   0  0  0  0  0  0  0  0  0  0  0  0
    8.0417    2.7208    0.0000 C   0  0  0  0  0  0  0  0  0  0  0  0
  2  1  1  0  0  0  0
  3  1  1  0  0  0  0
  4  3  1  0  0  0  0
  5  1  1  0  0  0  0
  6  2  1  0  0  0  0
  7  2  2  0  0  0  0
  8  5  2  0  0  0  0
  9  4  2  0  0  0  0
 10  4  1  0  0  0  0
 11  3  2  0  0  0  0
 12 10  2  0  0  0  0
 13 19  1  0  0  0  0
 14 10  1  0  0  0  0
 15 13  2  0  0  0  0
 16  5  1  0  0  0  0
 17  8  1  0  0  0  0
 18 14  1  0  0  0  0
 19 18  1  0  0  0  0
 20 13  1  0  0  0  0
 21 15  1  0  0  0  0
 22 20  1  0  0  0  0
 23 22  1  0  0  0  0
  8  6  1  0  0  0  0
  7  9  1  0  0  0  0
 21 23  1  0  0  0  0
M  END
>  <ID> (9133437)
9133437

>  <Supplier> (9133437)
ChemBridge

>  <clogP> (9133437)
2.481000000000000e+000

>  <RB> (9133437)
4

>  <tPSA> (9133437)
6.347000000000000e+001

>  <Hacc> (9133437)
3

>  <Hdon> (9133437)
1

>  <LogSw> (9133437)
-3.736000000000000e+000

>  <Group> (9133437)
2

>  <Core> (9133437)
127

$$$$
7102894
  -ISIS-  03310818252D

 30 33  0  0  0  0  0  0  0  0999 V2000
    8.5875   -1.4000    0.0000 N   0  0  3  0  0  0  0  0  0  0  0  0
    8.3292   -2.1875    0.0000 C   0  0  0  0  0  0  0  0  0  0  0  0
    7.9167   -0.9167    0.0000 C   0  0  0  0  0  0  0  0  0  0  0  0
    7.2542   -1.4000    0.0000 C   0  0  0  0  0  0  0  0  0  0  0  0
    7.5042   -2.1875    0.0000 S   0  0  0  0  0  0  0  0  0  0  0  0
    2.9667   -2.2292    0.0000 C   0  0  0  0  0  0  0  0  0  0  0  0
    6.5417   -0.9875    0.0000 C   0  0  0  0  0  0  0  0  0  0  0  0
    2.2542   -2.6417    0.0000 C   0  0  0  0  0  0  0  0  0  0  0  0
    9.3750   -1.1417    0.0000 C   0  0  0  0  0  0  0  0  0  0  0  0
    8.8167   -2.8542    0.0000 S   0  0  0  0  0  0  0  0  0  0  0  0
    3.6792   -2.6417    0.0000 O   0  0  0  0  0  0  0  0  0  0  0  0
    2.1667   -3.4667    0.0000 O   0  0  0  0  0  0  0  0  0  0  0  0
    7.9167   -0.0917    0.0000 O   0  0  0  0  0  0  0  0  0  0  0  0
    1.5042   -2.3125    0.0000 C   0  0  0  0  0  0  0  0  0  0  0  0
    2.9667   -1.4042    0.0000 O   0  0  0  0  0  0  0  0  0  0  0  0
    1.3667   -3.6375    0.0000 C   0  0  0  0  0  0  0  0  0  0  0  0
    0.9542   -2.9250    0.0000 C   0  0  0  0  0  0  0  0  0  0  0  0
    5.8292   -1.4042    0.0000 C   0  0  0  0  0  0  0  0  0  0  0  0
    4.4000   -2.2292    0.0000 C   0  0  0  0  0  0  0  0  0  0  0  0
    9.9792   -1.7000    0.0000 C   0  0  0  0  0  0  0  0  0  0  0  0
   11.2042   -2.8042    0.0000 C   0  0  0  0  0  0  0  0  0  0  0  0
    5.1125   -0.9917    0.0000 C   0  0  0  0  0  0  0  0  0  0  0  0
    5.8292   -2.2292    0.0000 C   0  0  0  0  0  0  0  0  0  0  0  0
    4.4000   -1.4042    0.0000 C   0  0  0  0  0  0  0  0  0  0  0  0
    5.1125   -2.6417    0.0000 C   0  0  0  0  0  0  0  0  0  0  0  0
   10.7667   -1.4417    0.0000 C   0  0  0  0  0  0  0  0  0  0  0  0
    9.8042   -2.5042    0.0000 C   0  0  0  0  0  0  0  0  0  0  0  0
   10.4167   -3.0542    0.0000 C   0  0  0  0  0  0  0  0  0  0  0  0
   11.3792   -1.9917    0.0000 C   0  0  0  0  0  0  0  0  0  0  0  0
   11.8167   -3.3542    0.0000 C   0  0  0  0  0  0  0  0  0  0  0  0
  2  1  1  0  0  0  0
  3  1  1  0  0  0  0
  4  3  1  0  0  0  0
  5  2  1  0  0  0  0
  6 11  1  0  0  0  0
  7  4  2  0  0  0  0
  8  6  1  0  0  0  0
  9  1  1  0  0  0  0
 10  2  2  0  0  0  0
 11 19  1  0  0  0  0
 12  8  1  0  0  0  0
 13  3  2  0  0  0  0
 14  8  2  0  0  0  0
 15  6  2  0  0  0  0
 16 12  1  0  0  0  0
 17 14  1  0  0  0  0
 18  7  1  0  0  0  0
 19 25  1  0  0  0  0
 20  9  1  0  0  0  0
 21 28  2  0  0  0  0
 22 18  2  0  0  0  0
 23 18  1  0  0  0  0
 24 22  1  0  0  0  0
 25 23  2  0  0  0  0
 26 20  1  0  0  0  0
 27 20  2  0  0  0  0
 28 27  1  0  0  0  0
 29 26  2  0  0  0  0
 30 21  1  0  0  0  0
  5  4  1  0  0  0  0
 21 29  1  0  0  0  0
 19 24  2  0  0  0  0
 16 17  2  0  0  0  0
M  END
>  <ID> (7102894)
7102894

>  <Supplier> (7102894)
ChemBridge

>  <clogP> (7102894)
5.050000000000000e+000

>  <RB> (7102894)
6

>  <tPSA> (7102894)
5.975000000000001e+001

>  <Hacc> (7102894)
4

>  <Hdon> (7102894)
0

>  <LogSw> (7102894)
-6.686999999999999e+000

>  <Group> (7102894)
1

>  <Core> (7102894)
001

$$$$
5615734
  -ISIS-  03310818222D

 29 31  0  0  0  0  0  0  0  0999 V2000
   -1.4125    1.9000    0.0000 C   0  0  0  0  0  0  0  0  0  0  0  0
   -2.0500    2.9833    0.0000 C   0  0  3  0  0  0  0  0  0  0  0  0
   -2.0500    0.8125    0.0000 C   0  0  0  0  0  0  0  0  0  0  0  0
   -2.0208    7.3167    0.0000 N   0  3  0  0  0  0  0  0  0  0  0  0
   -1.4125    6.2375    0.0000 C   0  0  0  0  0  0  0  0  0  0  0  0
   -3.9458    1.9000    0.0000 C   0  0  0  0  0  0  0  0  0  0  0  0
   -3.3333    0.8125    0.0000 N   0  0  0  0  0  0  0  0  0  0  0  0
   -3.3000    2.9833    0.0000 N   0  0  0  0  0  0  0  0  0  0  0  0
   -0.1625    1.9000    0.0000 C   0  0  0  0  0  0  0  0  0  0  0  0
   -1.4125    4.0542    0.0000 C   0  0  0  0  0  0  0  0  0  0  0  0
   -2.0500    5.1542    0.0000 C   0  0  0  0  0  0  0  0  0  0  0  0
   -0.1625    6.2375    0.0000 C   0  0  0  0  0  0  0  0  0  0  0  0
   -1.3958    8.3792    0.0000 O   0  5  0  0  0  0  0  0  0  0  0  0
   -3.2625    7.3167    0.0000 O   0  0  0  0  0  0  0  0  0  0  0  0
    0.5000    0.8000    0.0000 O   0  0  0  0  0  0  0  0  0  0  0  0
   -5.1958    1.9000    0.0000 O   0  0  0  0  0  0  0  0  0  0  0  0
   -0.1625    4.0542    0.0000 C   0  0  0  0  0  0  0  0  0  0  0  0
    0.4792    2.9833    0.0000 O   0  0  0  0  0  0  0  0  0  0  0  0
    0.4500    5.1542    0.0000 C   0  0  0  0  0  0  0  0  0  0  0  0
    1.7542    0.8000    0.0000 C   0  0  0  0  0  0  0  0  0  0  0  0
   -1.4125   -0.2792    0.0000 C   0  0  0  0  0  0  0  0  0  0  0  0
    2.4000   -0.3167    0.0000 C   0  0  0  0  0  0  0  0  0  0  0  0
    0.4667    7.3167    0.0000 O   0  0  0  0  0  0  0  0  0  0  0  0
    3.6542   -2.5000    0.0000 C   0  0  0  0  0  0  0  0  0  0  0  0
    1.7792   -1.4000    0.0000 C   0  0  0  0  0  0  0  0  0  0  0  0
    3.6792   -0.3167    0.0000 C   0  0  0  0  0  0  0  0  0  0  0  0
    4.3000   -1.4000    0.0000 C   0  0  0  0  0  0  0  0  0  0  0  0
    2.4167   -2.5000    0.0000 C   0  0  0  0  0  0  0  0  0  0  0  0
    4.2542   -3.6000    0.0000 C   0  0  0  0  0  0  0  0  0  0  0  0
  2  1  1  0  0  0  0
  3  1  2  0  0  0  0
  4  5  1  0  0  0  0
  5 11  2  0  0  0  0
  6  7  1  0  0  0  0
  7  3  1  0  0  0  0
  8  2  1  0  0  0  0
  9  1  1  0  0  0  0
 10  2  1  0  0  0  0
 11 10  1  0  0  0  0
 12 19  2  0  0  0  0
 13  4  1  0  0  0  0
 14  4  2  0  0  0  0
 15  9  1  0  0  0  0
 16  6  2  0  0  0  0
 17 10  2  0  0  0  0
 18  9  2  0  0  0  0
 19 17  1  0  0  0  0
 20 15  1  0  0  0  0
 21  3  1  0  0  0  0
 22 20  1  0  0  0  0
 23 12  1  0  0  0  0
 24 27  1  0  0  0  0
 25 22  2  0  0  0  0
 26 22  1  0  0  0  0
 27 26  2  0  0  0  0
 28 25  1  0  0  0  0
 29 24  1  0  0  0  0
  6  8  1  0  0  0  0
  5 12  1  0  0  0  0
 24 28  2  0  0  0  0
M  CHG  2   4   1  13  -1
M  END
>  <ID> (5615734)
5615734

>  <Supplier> (5615734)
ChemBridge

>  <clogP> (5615734)
5.380000000000000e+000

>  <RB> (5615734)
5

>  <tPSA> (5615734)
1.308000000000000e+002

>  <Hacc> (5615734)
6

>  <Hdon> (5615734)
3

>  <LogSw> (5615734)
-6.691999999999998e+000

>  <Group> (5615734)
2

>  <Core> (5615734)
072

$$$$
5615735
  -ISIS-  03310818222D

 29 30  0  0  0  0  0  0  0  0999 V2000
    3.9167   -2.8542    0.0000 S   0  0  3  0  0  0  0  0  0  0  0  0
    3.9167   -2.1042    0.0000 N   0  0  3  0  0  0  0  0  0  0  0  0
    3.2667   -3.2375    0.0000 C   0  0  0  0  0  0  0  0  0  0  0  0
    3.2667   -1.7292    0.0000 C   0  0  0  0  0  0  0  0  0  0  0  0
    4.5792   -1.7292    0.0000 C   0  0  0  0  0  0  0  0  0  0  0  0
    5.2292   -2.1042    0.0000 C   0  0  0  0  0  0  0  0  0  0  0  0
    2.6167   -2.8542    0.0000 C   0  0  0  0  0  0  0  0  0  0  0  0
    4.7792   -2.8542    0.0000 O   0  0  0  0  0  0  0  0  0  0  0  0
    4.1500   -3.6167    0.0000 O   0  0  0  0  0  0  0  0  0  0  0  0
    1.9542   -3.2292    0.0000 C   0  0  0  0  0  0  0  0  0  0  0  0
    3.2667   -0.9667    0.0000 C   0  0  0  0  0  0  0  0  0  0  0  0
    2.6167   -2.1000    0.0000 C   0  0  0  0  0  0  0  0  0  0  0  0
    5.8792   -1.7375    0.0000 N   0  0  0  0  0  0  0  0  0  0  0  0
    1.9542   -3.9875    0.0000 C   0  0  0  0  0  0  0  0  0  0  0  0
    3.2667   -3.9875    0.0000 C   0  0  0  0  0  0  0  0  0  0  0  0
    5.2292   -2.8542    0.0000 O   0  0  0  0  0  0  0  0  0  0  0  0
    2.6167   -0.6000    0.0000 C   0  0  0  0  0  0  0  0  0  0  0  0
    1.9667   -1.7292    0.0000 C   0  0  0  0  0  0  0  0  0  0  0  0
    2.6042   -4.3542    0.0000 C   0  0  0  0  0  0  0  0  0  0  0  0
    1.9667   -0.9667    0.0000 C   0  0  0  0  0  0  0  0  0  0  0  0
    1.3042   -2.8500    0.0000 O   0  0  0  0  0  0  0  0  0  0  0  0
    1.3042   -4.3542    0.0000 O   0  0  0  0  0  0  0  0  0  0  0  0
    6.5292   -2.1042    0.0000 C   0  0  3  0  0  0  0  0  0  0  0  0
    1.3167   -2.1000    0.0000 C   0  0  0  0  0  0  0  0  0  0  0  0
    2.6167    0.1500    0.0000 C   0  0  0  0  0  0  0  0  0  0  0  0
    0.6542   -3.2292    0.0000 C   0  0  0  0  0  0  0  0  0  0  0  0
    0.6542   -3.9792    0.0000 C   0  0  0  0  0  0  0  0  0  0  0  0
    6.5292   -2.8542    0.0000 C   0  0  0  0  0  0  0  0  0  0  0  0
    7.1792   -1.7375    0.0000 C   0  0  0  0  0  0  0  0  0  0  0  0
  2  1  1  0  0  0  0
  3  1  1  0  0  0  0
  4  2  1  0  0  0  0
  5  2  1  0  0  0  0
  6  5  1  0  0  0  0
  7  3  2  0  0  0  0
  8  1  2  0  0  0  0
  9  1  2  0  0  0  0
 10  7  1  0  0  0  0
 11  4  2  0  0  0  0
 12  4  1  0  0  0  0
 13  6  1  0  0  0  0
 14 19  1  0  0  0  0
 15  3  1  0  0  0  0
 16  6  2  0  0  0  0
 17 11  1  0  0  0  0
 18 12  2  0  0  0  0
 19 15  2  0  0  0  0
 20 18  1  0  0  0  0
 21 10  1  0  0  0  0
 22 14  1  0  0  0  0
 23 13  1  0  0  0  0
 24 18  1  0  0  0  0
 25 17  1  0  0  0  0
 26 21  1  0  0  0  0
 27 22  1  0  0  0  0
 28 23  1  0  0  0  0
 29 23  1  0  0  0  0
 14 10  2  0  0  0  0
 17 20  2  0  0  0  0
M  END
>  <ID> (5615735)
5615735

>  <Supplier> (5615735)
ChemBridge

>  <clogP> (5615735)
3.590000000000000e+000

>  <RB> (5615735)
4

>  <tPSA> (5615735)
8.494000000000000e+001

>  <Hacc> (5615735)
5

>  <Hdon> (5615735)
1

>  <LogSw> (5615735)
-5.331000000000000e+000

>  <Group> (5615735)
2

>  <Core> (5615735)
084

$$$$
9007252
  -ISIS-  03310818282D

 28 31  0  0  0  0  0  0  0  0999 V2000
    6.7792    1.3958    0.0000 N   0  0  3  0  0  0  0  0  0  0  0  0
    2.8875    0.6458    0.0000 C   0  0  0  0  0  0  0  0  0  0  0  0
    7.4292    1.7708    0.0000 C   0  0  0  0  0  0  0  0  0  0  0  0
    8.0792    1.3958    0.0000 C   0  0  0  0  0  0  0  0  0  0  0  0
    8.7292    1.7708    0.0000 C   0  0  0  0  0  0  0  0  0  0  0  0
    5.4875    0.6458    0.0000 N   0  0  3  0  0  0  0  0  0  0  0  0
    2.2375    0.2708    0.0000 N   0  0  0  0  0  0  0  0  0  0  0  0
    8.7292    2.5208    0.0000 C   0  0  0  0  0  0  0  0  0  0  0  0
    9.3792    1.3958    0.0000 O   0  0  0  0  0  0  0  0  0  0  0  0
    6.7792    0.6458    0.0000 C   0  0  0  0  0  0  0  0  0  0  0  0
    6.1292    1.7708    0.0000 C   0  0  0  0  0  0  0  0  0  0  0  0
    2.8875    1.3958    0.0000 O   0  0  0  0  0  0  0  0  0  0  0  0
    9.3792    2.8958    0.0000 O   0  0  0  0  0  0  0  0  0  0  0  0
    7.4292    2.5208    0.0000 C   0  0  0  0  0  0  0  0  0  0  0  0
    3.5375    0.2708    0.0000 N   0  0  0  0  0  0  0  0  0  0  0  0
    8.0792    2.8958    0.0000 C   0  0  0  0  0  0  0  0  0  0  0  0
    6.1292    0.2708    0.0000 C   0  0  0  0  0  0  0  0  0  0  0  0
    5.4875    1.3958    0.0000 C   0  0  0  0  0  0  0  0  0  0  0  0
    1.5875    0.6458    0.0000 C   0  0  0  0  0  0  0  0  0  0  0  0
    4.1875    0.6458    0.0000 C   0  0  0  0  0  0  0  0  0  0  0  0
    4.8375    0.2708    0.0000 C   0  0  0  0  0  0  0  0  0  0  0  0
   10.0292    1.7708    0.0000 C   0  0  0  0  0  0  0  0  0  0  0  0
   10.0292    2.5208    0.0000 C   0  0  0  0  0  0  0  0  0  0  0  0
    1.5875    1.3958    0.0000 C   0  0  0  0  0  0  0  0  0  0  0  0
    0.9375    0.2708    0.0000 C   0  0  0  0  0  0  0  0  0  0  0  0
    0.2875    0.6458    0.0000 C   0  0  0  0  0  0  0  0  0  0  0  0
    0.9375    1.7708    0.0000 C   0  0  0  0  0  0  0  0  0  0  0  0
    0.2875    1.3958    0.0000 C   0  0  0  0  0  0  0  0  0  0  0  0
  2 15  1  0  0  0  0
  3  1  1  0  0  0  0
  4  3  2  0  0  0  0
  5  4  1  0  0  0  0
  6 18  1  0  0  0  0
  7  2  1  0  0  0  0
  8 16  1  0  0  0  0
  9  5  1  0  0  0  0
 10  1  1  0  0  0  0
 11  1  1  0  0  0  0
 12  2  2  0  0  0  0
 13  8  1  0  0  0  0
 14  3  1  0  0  0  0
 15 20  1  0  0  0  0
 16 14  2  0  0  0  0
 17 10  1  0  0  0  0
 18 11  1  0  0  0  0
 19  7  1  0  0  0  0
 20 21  1  0  0  0  0
 21  6  1  0  0  0  0
 22  9  1  0  0  0  0
 23 13  1  0  0  0  0
 24 19  2  0  0  0  0
 25 19  1  0  0  0  0
 26 25  2  0  0  0  0
 27 24  1  0  0  0  0
 28 26  1  0  0  0  0
 17  6  1  0  0  0  0
  8  5  2  0  0  0  0
 23 22  1  0  0  0  0
 28 27  2  0  0  0  0
M  END
>  <ID> (9007252)
9007252

>  <Supplier> (9007252)
ChemBridge

>  <clogP> (9007252)
2.750000000000000e+000

>  <RB> (9007252)
5

>  <tPSA> (9007252)
6.606999999999998e+001

>  <Hacc> (9007252)
4

>  <Hdon> (9007252)
2

>  <LogSw> (9007252)
-4.337000000000000e+000

>  <Group> (9007252)
2

>  <Core> (9007252)
162

$$$$
5615732
  -ISIS-  03310818222D

 23 24  0  0  0  0  0  0  0  0999 V2000
    1.6542    0.4500    0.0000 C   0  0  0  0  0  0  0  0  0  0  0  0
    1.3292    1.0333    0.0000 C   0  0  0  0  0  0  0  0  0  0  0  0
    2.3375    0.4500    0.0000 C   0  0  0  0  0  0  0  0  0  0  0  0
    0.3167    0.4500    0.0000 C   0  0  0  0  0  0  0  0  0  0  0  0
    0.6542    1.0333    0.0000 C   0  0  0  0  0  0  0  0  0  0  0  0
   -0.3625    0.4458    0.0000 C   0  0  0  0  0  0  0  0  0  0  0  0
   -0.6833   -0.1375    0.0000 C   0  0  0  0  0  0  0  0  0  0  0  0
    2.6667    1.0333    0.0000 C   0  0  0  0  0  0  0  0  0  0  0  0
   -0.3458   -0.7292    0.0000 C   0  0  0  0  0  0  0  0  0  0  0  0
    2.6667   -0.1375    0.0000 C   0  0  0  0  0  0  0  0  0  0  0  0
    0.6500   -0.1292    0.0000 C   0  0  0  0  0  0  0  0  0  0  0  0
    0.3167    1.6000    0.0000 O   0  0  0  0  0  0  0  0  0  0  0  0
    0.3167   -0.7042    0.0000 C   0  0  0  0  0  0  0  0  0  0  0  0
    3.3542    1.0333    0.0000 C   0  0  0  0  0  0  0  0  0  0  0  0
    3.3542   -0.1375    0.0000 C   0  0  0  0  0  0  0  0  0  0  0  0
    3.6875    0.4500    0.0000 C   0  0  0  0  0  0  0  0  0  0  0  0
   -1.3500   -0.1375    0.0000 O   0  0  0  0  0  0  0  0  0  0  0  0
    3.7000   -0.7000    0.0000 Br  0  0  0  0  0  0  0  0  0  0  0  0
   -0.6833   -1.3000    0.0000 O   0  0  0  0  0  0  0  0  0  0  0  0
    2.3292    1.5958    0.0000 O   0  0  0  0  0  0  0  0  0  0  0  0
   -1.6833   -0.7167    0.0000 C   0  0  0  0  0  0  0  0  0  0  0  0
   -1.3500   -1.3000    0.0000 C   0  0  0  0  0  0  0  0  0  0  0  0
    2.6375    2.1625    0.0000 C   0  0  0  0  0  0  0  0  0  0  0  0
  2  1  2  0  0  0  0
  3  1  1  0  0  0  0
  4  5  1  0  0  0  0
  5  2  1  0  0  0  0
  6  4  2  0  0  0  0
  7  6  1  0  0  0  0
  8  3  1  0  0  0  0
  9 13  1  0  0  0  0
 10  3  2  0  0  0  0
 11  4  1  0  0  0  0
 12  5  2  0  0  0  0
 13 11  2  0  0  0  0
 14  8  2  0  0  0  0
 15 10  1  0  0  0  0
 16 15  2  0  0  0  0
 17  7  1  0  0  0  0
 18 15  1  0  0  0  0
 19  9  1  0  0  0  0
 20  8  1  0  0  0  0
 21 17  1  0  0  0  0
 22 19  1  0  0  0  0
 23 20  1  0  0  0  0
 16 14  1  0  0  0  0
  9  7  2  0  0  0  0
M  END
>  <ID> (5615732)
5615732

>  <Supplier> (5615732)
ChemBridge

>  <clogP> (5615732)
3.890000000000000e+000

>  <RB> (5615732)
3

>  <tPSA> (5615732)
4.476000000000002e+001

>  <Hacc> (5615732)
4

>  <Hdon> (5615732)
0

>  <LogSw> (5615732)
-5.272000000000000e+000

>  <Group> (5615732)
1

>  <Core> (5615732)
237

$$$$
9155589
  -ISIS-  03310818292D

 34 38  0  0  0  0  0  0  0  0999 V2000
    6.5417    2.4750    0.0000 C   0  0  0  0  0  0  0  0  0  0  0  0
    5.8917    2.1000    0.0000 C   0  0  0  0  0  0  0  0  0  0  0  0
    5.2417    2.4750    0.0000 C   0  0  3  0  0  0  0  0  0  0  0  0
    4.5917    2.1000    0.0000 C   0  0  3  0  0  0  0  0  0  0  0  0
    7.2292    2.1708    0.0000 C   0  0  0  0  0  0  0  0  0  0  0  0
    3.9417    2.4750    0.0000 N   0  0  3  0  0  0  0  0  0  0  0  0
    7.7292    2.7333    0.0000 N   0  0  0  0  0  0  0  0  0  0  0  0
    6.6167    3.2208    0.0000 C   0  0  0  0  0  0  0  0  0  0  0  0
    4.5917    1.3500    0.0000 C   0  0  0  0  0  0  0  0  0  0  0  0
    2.6417    3.2333    0.0000 N   0  0  3  0  0  0  0  0  0  0  0  0
    1.9917    3.6083    0.0000 C   0  0  0  0  0  0  0  0  0  0  0  0
    7.3542    3.3833    0.0000 C   0  0  0  0  0  0  0  0  0  0  0  0
    1.9917    4.3417    0.0000 N   0  0  0  0  0  0  0  0  0  0  0  0
    5.8917    1.3500    0.0000 O   0  0  0  0  0  0  0  0  0  0  0  0
    3.2917    2.1000    0.0000 C   0  0  0  0  0  0  0  0  0  0  0  0
    3.9417    3.2333    0.0000 C   0  0  0  0  0  0  0  0  0  0  0  0
    3.9417    0.9750    0.0000 C   0  0  0  0  0  0  0  0  0  0  0  0
    3.2917    3.6083    0.0000 C   0  0  0  0  0  0  0  0  0  0  0  0
    2.6417    2.4750    0.0000 C   0  0  0  0  0  0  0  0  0  0  0  0
    5.2417    3.2333    0.0000 O   0  0  0  0  0  0  0  0  0  0  0  0
    3.2917    1.3500    0.0000 O   0  0  0  0  0  0  0  0  0  0  0  0
    5.2417    0.9750    0.0000 C   0  0  0  0  0  0  0  0  0  0  0  0
    6.1167    3.7833    0.0000 C   0  0  0  0  0  0  0  0  0  0  0  0
    1.3417    3.2333    0.0000 C   0  0  0  0  0  0  0  0  0  0  0  0
    1.3417    4.7167    0.0000 C   0  0  0  0  0  0  0  0  0  0  0  0
    7.5875    4.0875    0.0000 C   0  0  0  0  0  0  0  0  0  0  0  0
    3.9417    0.2250    0.0000 C   0  0  0  0  0  0  0  0  0  0  0  0
    2.6417    0.9750    0.0000 C   0  0  0  0  0  0  0  0  0  0  0  0
    5.2417    0.2250    0.0000 C   0  0  0  0  0  0  0  0  0  0  0  0
    6.3542    4.4792    0.0000 C   0  0  0  0  0  0  0  0  0  0  0  0
    0.7000    3.6083    0.0000 C   0  0  0  0  0  0  0  0  0  0  0  0
    0.7000    4.3417    0.0000 C   0  0  0  0  0  0  0  0  0  0  0  0
    7.0875    4.6417    0.0000 C   0  0  0  0  0  0  0  0  0  0  0  0
    4.5917   -0.1500    0.0000 C   0  0  0  0  0  0  0  0  0  0  0  0
  2  1  1  0  0  0  0
  3  2  1  0  0  0  0
  4  3  1  0  0  0  0
  5  1  2  0  0  0  0
  6  4  1  0  0  0  0
  7  5  1  0  0  0  0
  8  1  1  0  0  0  0
  9  4  1  0  0  0  0
 10 18  1  0  0  0  0
 11 10  1  0  0  0  0
 12  8  1  0  0  0  0
 13 11  2  0  0  0  0
 14  2  2  0  0  0  0
 15  6  1  0  0  0  0
 16  6  1  0  0  0  0
 17  9  2  0  0  0  0
 18 16  1  0  0  0  0
 19 15  1  0  0  0  0
 20  3  1  0  0  0  0
 21 17  1  0  0  0  0
 22  9  1  0  0  0  0
 23  8  2  0  0  0  0
 24 11  1  0  0  0  0
 25 13  1  0  0  0  0
 26 12  2  0  0  0  0
 27 17  1  0  0  0  0
 28 21  1  0  0  0  0
 29 22  2  0  0  0  0
 30 23  1  0  0  0  0
 31 24  2  0  0  0  0
 32 31  1  0  0  0  0
 33 30  2  0  0  0  0
 34 29  1  0  0  0  0
  7 12  1  0  0  0  0
 33 26  1  0  0  0  0
 19 10  1  0  0  0  0
 27 34  2  0  0  0  0
 25 32  2  0  0  0  0
M  END
>  <ID> (9155589)
9155589

>  <Supplier> (9155589)
ChemBridge

>  <clogP> (9155589)
3.280000000000000e+000

>  <RB> (9155589)
6

>  <tPSA> (9155589)
8.169000000000000e+001

>  <Hacc> (9155589)
5

>  <Hdon> (9155589)
2

>  <LogSw> (9155589)
-4.321000000000000e+000

>  <Group> (9155589)
2

>  <Core> (9155589)
501

$$$$
9155586
  -ISIS-  03310818292D

 22 23  0  0  0  0  0  0  0  0999 V2000
    1.9750    0.9458    0.0000 S   0  0  3  0  0  0  0  0  0  0  0  0
    2.6917    1.1375    0.0000 C   0  0  0  0  0  0  0  0  0  0  0  0
    3.2792    0.6708    0.0000 C   0  0  0  0  0  0  0  0  0  0  0  0
    3.9042    1.0750    0.0000 C   0  0  0  0  0  0  0  0  0  0  0  0
    1.6000    1.5958    0.0000 N   0  0  3  0  0  0  0  0  0  0  0  0
    4.6042    0.8083    0.0000 C   0  0  0  0  0  0  0  0  0  0  0  0
    3.7167    1.7958    0.0000 S   0  0  0  0  0  0  0  0  0  0  0  0
    2.9667    1.8375    0.0000 C   0  0  0  0  0  0  0  0  0  0  0  0
    5.1917    1.2750    0.0000 N   0  0  0  0  0  0  0  0  0  0  0  0
    1.2917    0.6250    0.0000 O   0  0  0  0  0  0  0  0  0  0  0  0
    2.2292    0.2375    0.0000 O   0  0  0  0  0  0  0  0  0  0  0  0
    4.7250    0.0625    0.0000 O   0  0  0  0  0  0  0  0  0  0  0  0
    5.8917    1.0083    0.0000 C   0  0  3  0  0  0  0  0  0  0  0  0
    1.9750    2.2458    0.0000 C   0  0  0  0  0  0  0  0  0  0  0  0
    0.8500    1.5958    0.0000 C   0  0  0  0  0  0  0  0  0  0  0  0
    7.0792    1.5375    0.0000 O   0  0  0  0  0  0  0  0  0  0  0  0
    6.3292    1.6125    0.0000 C   0  0  0  0  0  0  0  0  0  0  0  0
    5.5625    0.3333    0.0000 C   0  0  0  0  0  0  0  0  0  0  0  0
    6.5375    0.6208    0.0000 C   0  0  0  0  0  0  0  0  0  0  0  0
    0.4750    2.2458    0.0000 C   0  0  0  0  0  0  0  0  0  0  0  0
    1.6000    2.8958    0.0000 C   0  0  0  0  0  0  0  0  0  0  0  0
    0.8500    2.8958    0.0000 C   0  0  0  0  0  0  0  0  0  0  0  0
  2  1  1  0  0  0  0
  3  2  1  0  0  0  0
  4  3  2  0  0  0  0
  5  1  1  0  0  0  0
  6  4  1  0  0  0  0
  7  8  1  0  0  0  0
  8  2  2  0  0  0  0
  9  6  1  0  0  0  0
 10  1  2  0  0  0  0
 11  1  2  0  0  0  0
 12  6  2  0  0  0  0
 13  9  1  0  0  0  0
 14  5  1  0  0  0  0
 15  5  1  0  0  0  0
 16 17  1  0  0  0  0
 17 13  1  0  0  0  0
 18 13  1  0  0  0  0
 19 13  1  0  0  0  0
 20 15  1  0  0  0  0
 21 14  1  0  0  0  0
 22 20  1  0  0  0  0
  7  4  1  0  0  0  0
 21 22  1  0  0  0  0
M  END
>  <ID> (9155586)
9155586

>  <Supplier> (9155586)
ChemBridge

>  <clogP> (9155586)
1.492000000000000e+000

>  <RB> (9155586)
4

>  <tPSA> (9155586)
8.671000000000001e+001

>  <Hacc> (9155586)
5

>  <Hdon> (9155586)
2

>  <LogSw> (9155586)
-3.000000000000000e+000

>  <Group> (9155586)
2

$$$$
9155584
  -ISIS-  03310818292D

 27 29  0  0  0  0  0  0  0  0999 V2000
    7.0042    1.8500    0.0000 C   0  0  0  0  0  0  0  0  0  0  0  0
    3.6292    2.5000    0.0000 C   0  0  0  0  0  0  0  0  0  0  0  0
    7.7542    1.8500    0.0000 C   0  0  0  0  0  0  0  0  0  0  0  0
    3.2542    3.1458    0.0000 N   0  0  3  0  0  0  0  0  0  0  0  0
    6.6292    2.5000    0.0000 N   0  0  0  0  0  0  0  0  0  0  0  0
    4.3792    2.5000    0.0000 C   0  0  0  0  0  0  0  0  0  0  0  0
    8.1292    1.2000    0.0000 C   0  0  0  0  0  0  0  0  0  0  0  0
    3.2542    1.8500    0.0000 O   0  0  0  0  0  0  0  0  0  0  0  0
    6.6292    1.2000    0.0000 O   0  0  0  0  0  0  0  0  0  0  0  0
    2.5042    3.1458    0.0000 C   0  0  0  0  0  0  0  0  0  0  0  0
    4.7542    1.8500    0.0000 C   0  0  0  0  0  0  0  0  0  0  0  0
    4.7542    3.1458    0.0000 C   0  0  0  0  0  0  0  0  0  0  0  0
    5.8792    2.5000    0.0000 C   0  0  0  0  0  0  0  0  0  0  0  0
    7.7542    0.5500    0.0000 F   0  0  0  0  0  0  0  0  0  0  0  0
    5.5042    1.8500    0.0000 C   0  0  0  0  0  0  0  0  0  0  0  0
    5.5042    3.1458    0.0000 C   0  0  0  0  0  0  0  0  0  0  0  0
    8.1292    2.5000    0.0000 C   0  0  0  0  0  0  0  0  0  0  0  0
    3.6292    3.7958    0.0000 C   0  0  0  0  0  0  0  0  0  0  0  0
    8.8792    1.2000    0.0000 C   0  0  0  0  0  0  0  0  0  0  0  0
    2.1292    3.7958    0.0000 C   0  0  0  0  0  0  0  0  0  0  0  0
    2.1292    2.5000    0.0000 C   0  0  0  0  0  0  0  0  0  0  0  0
    3.2542    4.4417    0.0000 C   0  0  0  0  0  0  0  0  0  0  0  0
    8.8792    2.5000    0.0000 C   0  0  0  0  0  0  0  0  0  0  0  0
    1.3792    2.5000    0.0000 C   0  0  0  0  0  0  0  0  0  0  0  0
    1.3792    3.7958    0.0000 C   0  0  0  0  0  0  0  0  0  0  0  0
    9.2542    1.8500    0.0000 C   0  0  0  0  0  0  0  0  0  0  0  0
    1.0042    3.1458    0.0000 C   0  0  0  0  0  0  0  0  0  0  0  0
  2  6  1  0  0  0  0
  3  1  1  0  0  0  0
  4  2  1  0  0  0  0
  5  1  1  0  0  0  0
  6 12  2  0  0  0  0
  7  3  1  0  0  0  0
  8  2  2  0  0  0  0
  9  1  2  0  0  0  0
 10  4  1  0  0  0  0
 11 15  2  0  0  0  0
 12 16  1  0  0  0  0
 13  5  1  0  0  0  0
 14  7  1  0  0  0  0
 15 13  1  0  0  0  0
 16 13  2  0  0  0  0
 17  3  2  0  0  0  0
 18  4  1  0  0  0  0
 19  7  2  0  0  0  0
 20 10  2  0  0  0  0
 21 10  1  0  0  0  0
 22 18  1  0  0  0  0
 23 17  1  0  0  0  0
 24 21  2  0  0  0  0
 25 20  1  0  0  0  0
 26 23  2  0  0  0  0
 27 24  1  0  0  0  0
 11  6  1  0  0  0  0
 26 19  1  0  0  0  0
 27 25  2  0  0  0  0
M  END
>  <ID> (9155584)
9155584

>  <Supplier> (9155584)
ChemBridge

>  <clogP> (9155584)
3.686000000000000e+000

>  <RB> (9155584)
4

>  <tPSA> (9155584)
4.941000000000003e+001

>  <Hacc> (9155584)
2

>  <Hdon> (9155584)
1

>  <LogSw> (9155584)
-4.990000000000000e+000

>  <Group> (9155584)
2

$$$$
9155585
  -ISIS-  03310818292D

 17 17  0  0  0  0  0  0  0  0999 V2000
    2.4417    3.0250    0.0000 S   0  0  3  0  0  0  0  0  0  0  0  0
    2.4417    2.2750    0.0000 N   0  0  3  0  0  0  0  0  0  0  0  0
    1.7917    1.9000    0.0000 C   0  0  3  0  0  0  0  0  0  0  0  0
    1.7917    1.1500    0.0000 C   0  0  0  0  0  0  0  0  0  0  0  0
    3.1625    3.2208    0.0000 O   0  0  0  0  0  0  0  0  0  0  0  0
    2.3042    3.7708    0.0000 O   0  0  0  0  0  0  0  0  0  0  0  0
    3.0875    1.9000    0.0000 C   0  0  0  0  0  0  0  0  0  0  0  0
    1.1417    0.7750    0.0000 O   0  0  0  0  0  0  0  0  0  0  0  0
    2.4417    0.7750    0.0000 N   0  0  0  0  0  0  0  0  0  0  0  0
    1.6917    2.9625    0.0000 C   0  0  0  0  0  0  0  0  0  0  0  0
    1.1417    2.2750    0.0000 C   0  0  0  0  0  0  0  0  0  0  0  0
    3.0875    1.1500    0.0000 C   0  0  0  0  0  0  0  0  0  0  0  0
    3.7375    2.2750    0.0000 C   0  0  0  0  0  0  0  0  0  0  0  0
    0.4917    1.9000    0.0000 C   0  0  0  0  0  0  0  0  0  0  0  0
    3.7375    0.7750    0.0000 C   0  0  0  0  0  0  0  0  0  0  0  0
    4.3875    1.9000    0.0000 C   0  0  0  0  0  0  0  0  0  0  0  0
    4.3875    1.1500    0.0000 C   0  0  0  0  0  0  0  0  0  0  0  0
  2  1  1  0  0  0  0
  3  2  1  0  0  0  0
  4  3  1  0  0  0  0
  5  1  2  0  0  0  0
  6  1  2  0  0  0  0
  7  2  1  0  0  0  0
  8  4  2  0  0  0  0
  9  4  1  0  0  0  0
 10  1  1  0  0  0  0
 11  3  1  0  0  0  0
 12  7  1  0  0  0  0
 13  7  2  0  0  0  0
 14 11  1  0  0  0  0
 15 12  2  0  0  0  0
 16 13  1  0  0  0  0
 17 16  2  0  0  0  0
 15 17  1  0  0  0  0
M  END
>  <ID> (9155585)
9155585

>  <Supplier> (9155585)
ChemBridge

>  <clogP> (9155585)
9.260000000000002e-001

>  <RB> (9155585)
3

>  <tPSA> (9155585)
8.046999999999999e+001

>  <Hacc> (9155585)
3

>  <Hdon> (9155585)
1

>  <LogSw> (9155585)
-1.861000000000000e+000

>  <Group> (9155585)
2

$$$$
9155582
  -ISIS-  03310818292D

 23 25  0  0  0  0  0  0  0  0999 V2000
    6.9917    2.1833    0.0000 C   0  0  0  0  0  0  0  0  0  0  0  0
    6.6167    1.5333    0.0000 C   0  0  0  0  0  0  0  0  0  0  0  0
    2.4917    0.8833    0.0000 N   0  0  3  0  0  0  0  0  0  0  0  0
    5.8667    1.5333    0.0000 N   0  0  0  0  0  0  0  0  0  0  0  0
    3.2417    0.8833    0.0000 C   0  0  0  0  0  0  0  0  0  0  0  0
    7.7417    2.1833    0.0000 C   0  0  0  0  0  0  0  0  0  0  0  0
    6.9917    0.8833    0.0000 O   0  0  0  0  0  0  0  0  0  0  0  0
    3.6167    0.2333    0.0000 C   0  0  0  0  0  0  0  0  0  0  0  0
    3.6167    1.5333    0.0000 C   0  0  0  0  0  0  0  0  0  0  0  0
    5.4917    0.8833    0.0000 C   0  0  0  0  0  0  0  0  0  0  0  0
    4.7417    0.8833    0.0000 C   0  0  0  0  0  0  0  0  0  0  0  0
    4.3667    0.2333    0.0000 C   0  0  0  0  0  0  0  0  0  0  0  0
    4.3667    1.5333    0.0000 C   0  0  0  0  0  0  0  0  0  0  0  0
    6.6167    2.8333    0.0000 C   0  0  0  0  0  0  0  0  0  0  0  0
    8.1167    1.5333    0.0000 O   0  0  0  0  0  0  0  0  0  0  0  0
    2.0500    1.4875    0.0000 C   0  0  0  0  0  0  0  0  0  0  0  0
    2.0500    0.2750    0.0000 C   0  0  0  0  0  0  0  0  0  0  0  0
    8.1167    2.8333    0.0000 C   0  0  0  0  0  0  0  0  0  0  0  0
    8.8667    1.5333    0.0000 C   0  0  0  0  0  0  0  0  0  0  0  0
    6.9917    3.4833    0.0000 C   0  0  0  0  0  0  0  0  0  0  0  0
    1.3375    1.2583    0.0000 C   0  0  0  0  0  0  0  0  0  0  0  0
    1.3375    0.5083    0.0000 C   0  0  0  0  0  0  0  0  0  0  0  0
    7.7417    3.4833    0.0000 C   0  0  0  0  0  0  0  0  0  0  0  0
  2  1  1  0  0  0  0
  3  5  1  0  0  0  0
  4  2  1  0  0  0  0
  5  9  2  0  0  0  0
  6  1  2  0  0  0  0
  7  2  2  0  0  0  0
  8 12  2  0  0  0  0
  9 13  1  0  0  0  0
 10  4  1  0  0  0  0
 11 10  1  0  0  0  0
 12 11  1  0  0  0  0
 13 11  2  0  0  0  0
 14  1  1  0  0  0  0
 15  6  1  0  0  0  0
 16  3  1  0  0  0  0
 17  3  1  0  0  0  0
 18  6  1  0  0  0  0
 19 15  1  0  0  0  0
 20 14  2  0  0  0  0
 21 16  1  0  0  0  0
 22 17  1  0  0  0  0
 23 20  1  0  0  0  0
 18 23  2  0  0  0  0
  8  5  1  0  0  0  0
 21 22  1  0  0  0  0
M  END
>  <ID> (9155582)
9155582

>  <Supplier> (9155582)
ChemBridge

>  <clogP> (9155582)
3.759000000000000e+000

>  <RB> (9155582)
4

>  <tPSA> (9155582)
4.156999999999997e+001

>  <Hacc> (9155582)
2

>  <Hdon> (9155582)
1

>  <LogSw> (9155582)
-4.674000000000000e+000

>  <Group> (9155582)
2

$$$$
9155583
  -ISIS-  03310818292D

 25 28  0  0  0  0  0  0  0  0999 V2000
    3.6500    2.6458    0.0000 C   0  0  0  0  0  0  0  0  0  0  0  0
    2.4667    2.3958    0.0000 N   0  0  3  0  0  0  0  0  0  0  0  0
    2.9667    2.9583    0.0000 C   0  0  0  0  0  0  0  0  0  0  0  0
    5.6000    3.0208    0.0000 N   0  0  3  0  0  0  0  0  0  0  0  0
    2.8417    1.7458    0.0000 C   0  0  0  0  0  0  0  0  0  0  0  0
    3.5750    1.9000    0.0000 C   0  0  0  0  0  0  0  0  0  0  0  0
    6.2500    2.6458    0.0000 C   0  0  0  0  0  0  0  0  0  0  0  0
    4.3000    3.0208    0.0000 C   0  0  0  0  0  0  0  0  0  0  0  0
    4.9500    2.6458    0.0000 C   0  0  0  0  0  0  0  0  0  0  0  0
    5.6000    3.7708    0.0000 C   0  0  0  0  0  0  0  0  0  0  0  0
    1.7167    2.4708    0.0000 C   0  0  3  0  0  0  0  0  0  0  0  0
    6.9000    3.7708    0.0000 O   0  0  0  0  0  0  0  0  0  0  0  0
    1.1125    2.9125    0.0000 C   0  0  0  0  0  0  0  0  0  0  0  0
    1.0292    2.1708    0.0000 C   0  0  0  0  0  0  0  0  0  0  0  0
    6.9000    3.0208    0.0000 C   0  0  0  0  0  0  0  0  0  0  0  0
    6.2500    4.1417    0.0000 C   0  0  0  0  0  0  0  0  0  0  0  0
    6.2500    1.8958    0.0000 C   0  0  0  0  0  0  0  0  0  0  0  0
    4.3000    3.7708    0.0000 O   0  0  0  0  0  0  0  0  0  0  0  0
    4.9500    4.1417    0.0000 O   0  0  0  0  0  0  0  0  0  0  0  0
    7.5500    2.6458    0.0000 C   0  0  0  0  0  0  0  0  0  0  0  0
    2.8125    3.6833    0.0000 C   0  0  0  0  0  0  0  0  0  0  0  0
    6.9000    1.5208    0.0000 C   0  0  0  0  0  0  0  0  0  0  0  0
    2.5292    1.0583    0.0000 C   0  0  0  0  0  0  0  0  0  0  0  0
    7.5500    1.8958    0.0000 C   0  0  0  0  0  0  0  0  0  0  0  0
    6.9000    0.7708    0.0000 C   0  0  0  0  0  0  0  0  0  0  0  0
  2  3  1  0  0  0  0
  3  1  2  0  0  0  0
  4  9  1  0  0  0  0
  5  6  2  0  0  0  0
  6  1  1  0  0  0  0
  7  4  1  0  0  0  0
  8  1  1  0  0  0  0
  9  8  1  0  0  0  0
 10  4  1  0  0  0  0
 11  2  1  0  0  0  0
 12 16  1  0  0  0  0
 13 11  1  0  0  0  0
 14 11  1  0  0  0  0
 15  7  1  0  0  0  0
 16 10  1  0  0  0  0
 17  7  2  0  0  0  0
 18  8  2  0  0  0  0
 19 10  2  0  0  0  0
 20 15  2  0  0  0  0
 21  3  1  0  0  0  0
 22 17  1  0  0  0  0
 23  5  1  0  0  0  0
 24 22  2  0  0  0  0
 25 22  1  0  0  0  0
  2  5  1  0  0  0  0
 13 14  1  0  0  0  0
 12 15  1  0  0  0  0
 20 24  1  0  0  0  0
M  END
>  <ID> (9155583)
9155583

>  <Supplier> (9155583)
ChemBridge

>  <clogP> (9155583)
3.681000000000000e+000

>  <RB> (9155583)
4

>  <tPSA> (9155583)
5.153999999999997e+001

>  <Hacc> (9155583)
3

>  <Hdon> (9155583)
0

>  <LogSw> (9155583)
-4.811000000000000e+000

>  <Group> (9155583)
2

>  <Core> (9155583)
384

$$$$
9155581
  -ISIS-  03310818292D

 25 27  0  0  0  0  0  0  0  0999 V2000
    1.7875    2.2250    0.0000 S   0  0  3  0  0  0  0  0  0  0  0  0
    2.1625    2.8750    0.0000 C   0  0  0  0  0  0  0  0  0  0  0  0
    5.1625    2.8750    0.0000 N   0  0  0  0  0  0  0  0  0  0  0  0
    6.2875    3.5250    0.0000 N   0  0  3  0  0  0  0  0  0  0  0  0
    4.4125    2.8750    0.0000 N   0  0  0  0  0  0  0  0  0  0  0  0
    5.5375    3.5250    0.0000 C   0  0  0  0  0  0  0  0  0  0  0  0
    2.9125    2.8750    0.0000 C   0  0  0  0  0  0  0  0  0  0  0  0
    3.2875    3.5250    0.0000 C   0  0  0  0  0  0  0  0  0  0  0  0
    4.0375    3.5250    0.0000 C   0  0  0  0  0  0  0  0  0  0  0  0
    1.1667    2.6583    0.0000 O   0  0  0  0  0  0  0  0  0  0  0  0
    1.3042    1.6500    0.0000 O   0  0  0  0  0  0  0  0  0  0  0  0
    2.3167    1.6958    0.0000 N   0  0  0  0  0  0  0  0  0  0  0  0
    1.7875    3.5250    0.0000 C   0  0  0  0  0  0  0  0  0  0  0  0
    6.6625    2.8750    0.0000 C   0  0  0  0  0  0  0  0  0  0  0  0
    6.6625    4.1667    0.0000 C   0  0  0  0  0  0  0  0  0  0  0  0
    5.1625    4.1667    0.0000 C   0  0  0  0  0  0  0  0  0  0  0  0
    2.9125    4.1667    0.0000 C   0  0  0  0  0  0  0  0  0  0  0  0
    4.4125    4.1667    0.0000 C   0  0  0  0  0  0  0  0  0  0  0  0
    2.1625    4.1667    0.0000 C   0  0  0  0  0  0  0  0  0  0  0  0
    7.4125    4.1667    0.0000 C   0  0  0  0  0  0  0  0  0  0  0  0
    7.4125    2.8750    0.0000 C   0  0  0  0  0  0  0  0  0  0  0  0
    7.7875    3.5250    0.0000 C   0  0  3  0  0  0  0  0  0  0  0  0
    1.0375    3.5250    0.0000 C   0  0  0  0  0  0  0  0  0  0  0  0
    2.1167    0.9708    0.0000 C   0  0  0  0  0  0  0  0  0  0  0  0
    8.5375    3.5250    0.0000 C   0  0  0  0  0  0  0  0  0  0  0  0
  2  1  1  0  0  0  0
  3  5  1  0  0  0  0
  4  6  1  0  0  0  0
  5  9  2  0  0  0  0
  6 16  1  0  0  0  0
  7  2  2  0  0  0  0
  8  7  1  0  0  0  0
  9  8  1  0  0  0  0
 10  1  2  0  0  0  0
 11  1  2  0  0  0  0
 12  1  1  0  0  0  0
 13  2  1  0  0  0  0
 14  4  1  0  0  0  0
 15  4  1  0  0  0  0
 16 18  2  0  0  0  0
 17 19  1  0  0  0  0
 18  9  1  0  0  0  0
 19 13  2  0  0  0  0
 20 15  1  0  0  0  0
 21 14  1  0  0  0  0
 22 20  1  0  0  0  0
 23 13  1  0  0  0  0
 24 12  1  0  0  0  0
 25 22  1  0  0  0  0
  8 17  2  0  0  0  0
  3  6  2  0  0  0  0
 21 22  1  0  0  0  0
M  END
>  <ID> (9155581)
9155581

>  <Supplier> (9155581)
ChemBridge

>  <clogP> (9155581)
3.652000000000000e+000

>  <RB> (9155581)
3

>  <tPSA> (9155581)
7.519000000000000e+001

>  <Hacc> (9155581)
5

>  <Hdon> (9155581)
1

>  <LogSw> (9155581)
-4.947000000000000e+000

>  <Group> (9155581)
2

$$$$
6112946
  -ISIS-  03310818232D

 22 23  0  0  0  0  0  0  0  0999 V2000
  -10.9292    6.8667    0.0000 C   0  0  0  0  0  0  0  0  0  0  0  0
  -12.9375    7.0500    0.0000 C   0  0  0  0  0  0  0  0  0  0  0  0
  -10.0042    8.6292    0.0000 S   0  0  0  0  0  0  0  0  0  0  0  0
   -9.9292    5.1375    0.0000 N   0  0  0  0  0  0  0  0  0  0  0  0
  -13.2667    9.0375    0.0000 C   0  0  0  0  0  0  0  0  0  0  0  0
  -11.5042   10.0542    0.0000 C   0  0  0  0  0  0  0  0  0  0  0  0
   -7.9375    5.1375    0.0000 C   0  0  0  0  0  0  0  0  0  0  0  0
  -14.2375    5.7917    0.0000 C   0  0  0  0  0  0  0  0  0  0  0  0
   -6.9500    3.4958    0.0000 N   0  0  0  0  0  0  0  0  0  0  0  0
   -6.9500    6.8667    0.0000 O   0  0  0  0  0  0  0  0  0  0  0  0
  -13.7292    3.7958    0.0000 O   0  0  0  0  0  0  0  0  0  0  0  0
  -16.0000    6.6375    0.0000 N   0  0  0  0  0  0  0  0  0  0  0  0
   -5.0458    3.4958    0.0000 C   0  0  0  0  0  0  0  0  0  0  0  0
   -1.1958    3.5458    0.0000 C   0  0  0  0  0  0  0  0  0  0  0  0
  -14.9792   10.0542    0.0000 C   0  0  0  0  0  0  0  0  0  0  0  0
    0.6792    3.5958    0.0000 Cl  0  0  0  0  0  0  0  0  0  0  0  0
  -10.9000   11.9667    0.0000 C   0  0  0  0  0  0  0  0  0  0  0  0
   -4.0500    1.8625    0.0000 C   0  0  0  0  0  0  0  0  0  0  0  0
   -4.1208    5.1167    0.0000 C   0  0  0  0  0  0  0  0  0  0  0  0
   -2.2125    5.1375    0.0000 C   0  0  0  0  0  0  0  0  0  0  0  0
   -2.1458    1.8625    0.0000 C   0  0  0  0  0  0  0  0  0  0  0  0
  -14.3375   12.1500    0.0000 C   0  0  0  0  0  0  0  0  0  0  0  0
  2  1  2  0  0  0  0
  3  1  1  0  0  0  0
  4  1  1  0  0  0  0
  5  2  1  0  0  0  0
  6  3  1  0  0  0  0
  7  4  1  0  0  0  0
  8  2  1  0  0  0  0
  9  7  1  0  0  0  0
 10  7  2  0  0  0  0
 11  8  2  0  0  0  0
 12  8  1  0  0  0  0
 13  9  1  0  0  0  0
 14 20  1  0  0  0  0
 15  5  1  0  0  0  0
 16 14  1  0  0  0  0
 17  6  1  0  0  0  0
 18 13  2  0  0  0  0
 19 13  1  0  0  0  0
 20 19  2  0  0  0  0
 21 18  1  0  0  0  0
 22 15  1  0  0  0  0
  5  6  2  0  0  0  0
 21 14  2  0  0  0  0
M  END
>  <ID> (6112946)
6112946

>  <Supplier> (6112946)
ChemBridge

>  <clogP> (6112946)
4.170000000000000e+000

>  <RB> (6112946)
3

>  <tPSA> (6112946)
8.422000000000000e+001

>  <Hacc> (6112946)
2

>  <Hdon> (6112946)
3

>  <LogSw> (6112946)
-5.225000000000000e+000

>  <Group> (6112946)
3

>  <Core> (6112946)
097

$$$$
7452405
  -ISIS-  03310818262D

 27 29  0  0  0  0  0  0  0  0999 V2000
   -0.5833   -1.9667    0.0000 N   0  3  0  0  0  0  0  0  0  0  0  0
    2.0167   -0.4667    0.0000 C   0  0  0  0  0  0  0  0  0  0  0  0
    2.6667   -0.8417    0.0000 N   0  0  0  0  0  0  0  0  0  0  0  0
    1.3667   -0.8417    0.0000 C   0  0  0  0  0  0  0  0  0  0  0  0
    3.3167   -0.4667    0.0000 C   0  0  0  0  0  0  0  0  0  0  0  0
    0.7167   -0.4667    0.0000 C   0  0  0  0  0  0  0  0  0  0  0  0
    0.0667   -1.5917    0.0000 C   0  0  0  0  0  0  0  0  0  0  0  0
    3.9667   -0.8417    0.0000 N   0  0  0  0  0  0  0  0  0  0  0  0
    0.0667   -0.8417    0.0000 C   0  0  0  0  0  0  0  0  0  0  0  0
    5.2625   -1.5917    0.0000 N   0  0  3  0  0  0  0  0  0  0  0  0
    4.6167   -0.4667    0.0000 C   0  0  0  0  0  0  0  0  0  0  0  0
    5.2625   -0.8417    0.0000 C   0  0  0  0  0  0  0  0  0  0  0  0
    1.3667   -1.5917    0.0000 C   0  0  0  0  0  0  0  0  0  0  0  0
   -1.2333   -1.5917    0.0000 O   0  5  0  0  0  0  0  0  0  0  0  0
    3.3167    0.2833    0.0000 S   0  0  0  0  0  0  0  0  0  0  0  0
   -0.5833   -2.7167    0.0000 O   0  0  0  0  0  0  0  0  0  0  0  0
    2.0167    0.2833    0.0000 O   0  0  0  0  0  0  0  0  0  0  0  0
    0.7167   -1.9667    0.0000 C   0  0  0  0  0  0  0  0  0  0  0  0
    0.7167    0.2833    0.0000 Cl  0  0  0  0  0  0  0  0  0  0  0  0
    5.8667   -2.0375    0.0000 C   0  0  0  0  0  0  0  0  0  0  0  0
    4.6542   -2.0292    0.0000 C   0  0  0  0  0  0  0  0  0  0  0  0
    4.6167    0.2833    0.0000 C   0  0  0  0  0  0  0  0  0  0  0  0
    5.9167   -0.4667    0.0000 C   0  0  0  0  0  0  0  0  0  0  0  0
    4.8875   -2.7417    0.0000 C   0  0  0  0  0  0  0  0  0  0  0  0
    5.6375   -2.7500    0.0000 C   0  0  0  0  0  0  0  0  0  0  0  0
    5.2625    0.6625    0.0000 C   0  0  0  0  0  0  0  0  0  0  0  0
    5.9167    0.2833    0.0000 C   0  0  0  0  0  0  0  0  0  0  0  0
  2  4  1  0  0  0  0
  3  2  1  0  0  0  0
  4 13  2  0  0  0  0
  5  3  1  0  0  0  0
  6  9  2  0  0  0  0
  7  1  1  0  0  0  0
  8  5  1  0  0  0  0
  9  7  1  0  0  0  0
 10 12  1  0  0  0  0
 11  8  1  0  0  0  0
 12 11  2  0  0  0  0
 13 18  1  0  0  0  0
 14  1  1  0  0  0  0
 15  5  2  0  0  0  0
 16  1  2  0  0  0  0
 17  2  2  0  0  0  0
 18  7  2  0  0  0  0
 19  6  1  0  0  0  0
 20 10  1  0  0  0  0
 21 10  1  0  0  0  0
 22 11  1  0  0  0  0
 23 12  1  0  0  0  0
 24 21  1  0  0  0  0
 25 20  1  0  0  0  0
 26 22  2  0  0  0  0
 27 26  1  0  0  0  0
  4  6  1  0  0  0  0
 23 27  2  0  0  0  0
 24 25  1  0  0  0  0
M  CHG  2   1   1  14  -1
M  END
>  <ID> (7452405)
7452405

>  <Supplier> (7452405)
ChemBridge

>  <clogP> (7452405)
3.488000000000000e+000

>  <RB> (7452405)
3

>  <tPSA> (7452405)
8.751000000000002e+001

>  <Hacc> (7452405)
3

>  <Hdon> (7452405)
2

>  <LogSw> (7452405)
-6.793000000000000e+000

>  <Group> (7452405)
1

>  <Core> (7452405)
071

$$$$
7452404
  -ISIS-  03310818262D

 24 25  0  0  0  0  0  0  0  0999 V2000
    3.6667    1.2958    0.0000 N   0  3  0  0  0  0  0  0  0  0  0  0
    1.1292   -1.1375    0.0000 C   0  0  0  0  0  0  0  0  0  0  0  0
    1.9667   -1.6167    0.0000 N   0  0  0  0  0  0  0  0  0  0  0  0
    2.8292   -1.1375    0.0000 C   0  0  0  0  0  0  0  0  0  0  0  0
    3.6667    0.3000    0.0000 C   0  0  0  0  0  0  0  0  0  0  0  0
    0.2875   -1.6167    0.0000 C   0  0  3  0  0  0  0  0  0  0  0  0
    2.8292   -0.1792    0.0000 C   0  0  0  0  0  0  0  0  0  0  0  0
    4.5042    1.7708    0.0000 O   0  5  0  0  0  0  0  0  0  0  0  0
   -0.1958   -0.7500    0.0000 O   0  0  0  0  0  0  0  0  0  0  0  0
    2.8292    1.7708    0.0000 O   0  0  0  0  0  0  0  0  0  0  0  0
    3.6667   -1.6167    0.0000 C   0  0  0  0  0  0  0  0  0  0  0  0
    1.1500   -0.1792    0.0000 O   0  0  0  0  0  0  0  0  0  0  0  0
    4.5042   -0.1792    0.0000 C   0  0  0  0  0  0  0  0  0  0  0  0
    4.5042   -1.1375    0.0000 C   0  0  0  0  0  0  0  0  0  0  0  0
   -1.1500   -0.7500    0.0000 C   0  0  0  0  0  0  0  0  0  0  0  0
   -3.0958   -0.7167    0.0000 C   0  0  0  0  0  0  0  0  0  0  0  0
    3.6667   -2.5792    0.0000 F   0  0  0  0  0  0  0  0  0  0  0  0
   -4.0500   -0.7167    0.0000 Cl  0  0  0  0  0  0  0  0  0  0  0  0
   -1.6125    0.1208    0.0000 C   0  0  0  0  0  0  0  0  0  0  0  0
   -1.6333   -1.5542    0.0000 C   0  0  0  0  0  0  0  0  0  0  0  0
   -2.5708    0.1208    0.0000 C   0  0  0  0  0  0  0  0  0  0  0  0
   -2.6125   -1.5542    0.0000 C   0  0  0  0  0  0  0  0  0  0  0  0
   -0.5708   -2.0667    0.0000 C   0  0  0  0  0  0  0  0  0  0  0  0
    0.7500   -2.4542    0.0000 C   0  0  0  0  0  0  0  0  0  0  0  0
  2  3  1  0  0  0  0
  3  4  1  0  0  0  0
  4  7  2  0  0  0  0
  5  1  1  0  0  0  0
  6  2  1  0  0  0  0
  7  5  1  0  0  0  0
  8  1  1  0  0  0  0
  9  6  1  0  0  0  0
 10  1  2  0  0  0  0
 11 14  2  0  0  0  0
 12  2  2  0  0  0  0
 13  5  2  0  0  0  0
 14 13  1  0  0  0  0
 15  9  1  0  0  0  0
 16 22  2  0  0  0  0
 17 11  1  0  0  0  0
 18 16  1  0  0  0  0
 19 15  1  0  0  0  0
 20 15  2  0  0  0  0
 21 19  2  0  0  0  0
 22 20  1  0  0  0  0
 23  6  1  0  0  0  0
 24  6  1  0  0  0  0
 11  4  1  0  0  0  0
 21 16  1  0  0  0  0
M  CHG  2   1   1   8  -1
M  END
>  <ID> (7452404)
7452404

>  <Supplier> (7452404)
ChemBridge

>  <clogP> (7452404)
4.077000000000000e+000

>  <RB> (7452404)
4

>  <tPSA> (7452404)
8.146999999999999e+001

>  <Hacc> (7452404)
4

>  <Hdon> (7452404)
1

>  <LogSw> (7452404)
-6.019000000000000e+000

>  <Group> (7452404)
1

>  <Core> (7452404)
315

$$$$
5723557
  -ISIS-  03310818222D

 22 23  0  0  0  0  0  0  0  0999 V2000
   -2.5833    1.3958    0.0000 N   0  0  3  0  0  0  0  0  0  0  0  0
   -2.9958    1.0958    0.0000 C   0  0  0  0  0  0  0  0  0  0  0  0
   -2.1958    1.1000    0.0000 C   0  0  0  0  0  0  0  0  0  0  0  0
   -2.3333    0.6333    0.0000 C   0  0  0  0  0  0  0  0  0  0  0  0
   -2.8333    0.6000    0.0000 S   0  0  0  0  0  0  0  0  0  0  0  0
   -0.4708   -0.3500    0.0000 C   0  0  3  0  0  0  0  0  0  0  0  0
   -2.0458    0.2500    0.0000 C   0  0  0  0  0  0  0  0  0  0  0  0
   -2.5708    1.8708    0.0000 C   0  0  0  0  0  0  0  0  0  0  0  0
   -0.7708    0.0208    0.0000 C   0  0  0  0  0  0  0  0  0  0  0  0
   -3.4708    1.2458    0.0000 S   0  0  0  0  0  0  0  0  0  0  0  0
   -2.9833    2.1125    0.0000 C   0  0  0  0  0  0  0  0  0  0  0  0
   -1.7333    1.2500    0.0000 O   0  0  0  0  0  0  0  0  0  0  0  0
   -1.5625    0.3333    0.0000 C   0  0  0  0  0  0  0  0  0  0  0  0
   -1.2625   -0.0500    0.0000 C   0  0  0  0  0  0  0  0  0  0  0  0
   -3.4000    1.8708    0.0000 O   0  0  0  0  0  0  0  0  0  0  0  0
   -0.8500   -0.6500    0.0000 F   0  0  0  0  0  0  0  0  0  0  0  0
   -0.1833   -0.7167    0.0000 F   0  0  0  0  0  0  0  0  0  0  0  0
   -0.0958   -0.0500    0.0000 F   0  0  0  0  0  0  0  0  0  0  0  0
   -2.9625    2.5958    0.0000 O   0  0  0  0  0  0  0  0  0  0  0  0
   -0.5958    0.4833    0.0000 C   0  0  0  0  0  0  0  0  0  0  0  0
   -0.8958    0.8500    0.0000 C   0  0  0  0  0  0  0  0  0  0  0  0
   -1.3708    0.7708    0.0000 C   0  0  0  0  0  0  0  0  0  0  0  0
  2  1  1  0  0  0  0
  3  1  1  0  0  0  0
  4  3  1  0  0  0  0
  5  2  1  0  0  0  0
  6  9  1  0  0  0  0
  7  4  2  0  0  0  0
  8  1  1  0  0  0  0
  9 14  1  0  0  0  0
 10  2  2  0  0  0  0
 11  8  1  0  0  0  0
 12  3  2  0  0  0  0
 13  7  1  0  0  0  0
 14 13  2  0  0  0  0
 15 11  2  0  0  0  0
 16  6  1  0  0  0  0
 17  6  1  0  0  0  0
 18  6  1  0  0  0  0
 19 11  1  0  0  0  0
 20 21  1  0  0  0  0
 21 22  2  0  0  0  0
 22 13  1  0  0  0  0
  4  5  1  0  0  0  0
 20  9  2  0  0  0  0
M  END
>  <ID> (5723557)
5723557

>  <Supplier> (5723557)
ChemBridge

>  <clogP> (5723557)
2.310000000000000e+000

>  <RB> (5723557)
3

>  <tPSA> (5723557)
5.761000000000000e+001

>  <Hacc> (5723557)
3

>  <Hdon> (5723557)
1

>  <LogSw> (5723557)
-3.705000000000000e+000

>  <Group> (5723557)
1

>  <Core> (5723557)
001

$$$$
7452409
  -ISIS-  03310818262D

 29 31  0  0  0  0  0  0  0  0999 V2000
    8.1167   -0.4792    0.0000 C   0  0  0  0  0  0  0  0  0  0  0  0
    8.8917   -2.2292    0.0000 N   0  0  3  0  0  0  0  0  0  0  0  0
    7.8667   -1.6417    0.0000 C   0  0  0  0  0  0  0  0  0  0  0  0
    9.7667   -1.4292    0.0000 N   0  0  0  0  0  0  0  0  0  0  0  0
    9.2917   -0.3667    0.0000 C   0  0  0  0  0  0  0  0  0  0  0  0
    7.3417    0.4083    0.0000 C   0  0  0  0  0  0  0  0  0  0  0  0
    8.8917   -3.4125    0.0000 C   0  0  0  0  0  0  0  0  0  0  0  0
    4.6542   -1.1667    0.0000 C   0  0  0  0  0  0  0  0  0  0  0  0
    6.7875   -2.1292    0.0000 O   0  0  0  0  0  0  0  0  0  0  0  0
    1.1625   -1.8125    0.0000 C   0  0  0  0  0  0  0  0  0  0  0  0
    6.1917    0.1750    0.0000 C   0  0  0  0  0  0  0  0  0  0  0  0
    3.8792   -0.2792    0.0000 C   0  0  0  0  0  0  0  0  0  0  0  0
    5.8125   -0.9375    0.0000 C   0  0  0  0  0  0  0  0  0  0  0  0
    2.7167   -0.4917    0.0000 O   0  0  0  0  0  0  0  0  0  0  0  0
    0.7667   -2.9250    0.0000 O   0  0  0  0  0  0  0  0  0  0  0  0
    9.9167   -4.0042    0.0000 C   0  0  0  0  0  0  0  0  0  0  0  0
    7.8667   -4.0000    0.0000 C   0  0  0  0  0  0  0  0  0  0  0  0
    4.2625    0.8333    0.0000 C   0  0  0  0  0  0  0  0  0  0  0  0
    2.3167   -1.6000    0.0000 C   0  0  0  0  0  0  0  0  0  0  0  0
    0.3917   -0.9167    0.0000 N   0  0  0  0  0  0  0  0  0  0  0  0
    5.4167    1.0625    0.0000 C   0  0  0  0  0  0  0  0  0  0  0  0
    8.8917   -5.7667    0.0000 C   0  0  0  0  0  0  0  0  0  0  0  0
    7.8667   -5.1792    0.0000 C   0  0  0  0  0  0  0  0  0  0  0  0
    9.9167   -5.1667    0.0000 C   0  0  0  0  0  0  0  0  0  0  0  0
    4.2792   -2.2917    0.0000 O   0  0  0  0  0  0  0  0  0  0  0  0
    8.8917   -6.9417    0.0000 Cl  0  0  0  0  0  0  0  0  0  0  0  0
    9.8917    0.6583    0.0000 C   0  0  0  0  0  0  0  0  0  0  0  0
    5.0667   -3.1792    0.0000 C   0  0  0  0  0  0  0  0  0  0  0  0
    4.6917   -4.3000    0.0000 C   0  0  0  0  0  0  0  0  0  0  0  0
  2  3  1  0  0  0  0
  3  1  1  0  0  0  0
  4  5  2  0  0  0  0
  5  1  1  0  0  0  0
  6  1  2  0  0  0  0
  7  2  1  0  0  0  0
  8 13  1  0  0  0  0
  9  3  2  0  0  0  0
 10 19  1  0  0  0  0
 11  6  1  0  0  0  0
 12 18  1  0  0  0  0
 13 11  2  0  0  0  0
 14 12  1  0  0  0  0
 15 10  2  0  0  0  0
 16  7  1  0  0  0  0
 17  7  2  0  0  0  0
 18 21  2  0  0  0  0
 19 14  1  0  0  0  0
 20 10  1  0  0  0  0
 21 11  1  0  0  0  0
 22 23  2  0  0  0  0
 23 17  1  0  0  0  0
 24 16  2  0  0  0  0
 25  8  1  0  0  0  0
 26 22  1  0  0  0  0
 27  5  1  0  0  0  0
 28 25  1  0  0  0  0
 29 28  1  0  0  0  0
  4  2  1  0  0  0  0
  8 12  2  0  0  0  0
 22 24  1  0  0  0  0
M  END
>  <ID> (7452409)
7452409

>  <Supplier> (7452409)
ChemBridge

>  <clogP> (7452409)
2.658000000000000e+000

>  <RB> (7452409)
5

>  <tPSA> (7452409)
9.422000000000000e+001

>  <Hacc> (7452409)
5

>  <Hdon> (7452409)
1

>  <LogSw> (7452409)
-5.526999999999998e+000

>  <Group> (7452409)
2

>  <Core> (7452409)
046

$$$$
6112948
  -ISIS-  03310818232D

 24 26  0  0  0  0  0  0  0  0999 V2000
   -2.2833   -0.1375    0.0000 N   0  0  3  0  0  0  0  0  0  0  0  0
   -2.8625   -0.3375    0.0000 C   0  0  0  0  0  0  0  0  0  0  0  0
   -2.8625    0.6833    0.0000 C   0  0  0  0  0  0  0  0  0  0  0  0
   -2.2833    0.4833    0.0000 C   0  0  0  0  0  0  0  0  0  0  0  0
   -3.2208    0.1833    0.0000 S   0  0  0  0  0  0  0  0  0  0  0  0
   -3.0833    1.3000    0.0000 C   0  0  0  0  0  0  0  0  0  0  0  0
   -0.1208   -0.1375    0.0000 N   0  0  3  0  0  0  0  0  0  0  0  0
   -0.6625   -0.4542    0.0000 C   0  0  0  0  0  0  0  0  0  0  0  0
   -1.7458   -0.4542    0.0000 C   0  0  0  0  0  0  0  0  0  0  0  0
   -1.2000   -0.1375    0.0000 C   0  0  0  0  0  0  0  0  0  0  0  0
   -2.6625    1.7625    0.0000 C   0  0  0  0  0  0  0  0  0  0  0  0
   -3.0833   -0.9375    0.0000 S   0  0  0  0  0  0  0  0  0  0  0  0
   -2.7458    2.3833    0.0000 S   0  0  0  0  0  0  0  0  0  0  0  0
   -1.7833    0.8833    0.0000 O   0  0  0  0  0  0  0  0  0  0  0  0
    0.4167   -0.4375    0.0000 C   0  0  0  0  0  0  0  0  0  0  0  0
   -0.1208    0.5000    0.0000 C   0  0  0  0  0  0  0  0  0  0  0  0
   -2.1625    2.6208    0.0000 C   0  0  0  0  0  0  0  0  0  0  0  0
   -0.6625   -1.0792    0.0000 O   0  0  0  0  0  0  0  0  0  0  0  0
   -2.0625    1.6458    0.0000 C   0  0  0  0  0  0  0  0  0  0  0  0
   -1.7833    2.2083    0.0000 C   0  0  0  0  0  0  0  0  0  0  0  0
    0.9792   -0.1375    0.0000 C   0  0  0  0  0  0  0  0  0  0  0  0
    0.4167    0.8208    0.0000 C   0  0  0  0  0  0  0  0  0  0  0  0
    0.9792    0.5000    0.0000 C   0  0  3  0  0  0  0  0  0  0  0  0
    1.5167    0.8208    0.0000 C   0  0  0  0  0  0  0  0  0  0  0  0
  2  1  1  0  0  0  0
  3  4  1  0  0  0  0
  4  1  1  0  0  0  0
  5  2  1  0  0  0  0
  6  3  2  0  0  0  0
  7  8  1  0  0  0  0
  8 10  1  0  0  0  0
  9  1  1  0  0  0  0
 10  9  1  0  0  0  0
 11  6  1  0  0  0  0
 12  2  2  0  0  0  0
 13 11  1  0  0  0  0
 14  4  2  0  0  0  0
 15  7  1  0  0  0  0
 16  7  1  0  0  0  0
 17 13  1  0  0  0  0
 18  8  2  0  0  0  0
 19 11  2  0  0  0  0
 20 19  1  0  0  0  0
 21 15  1  0  0  0  0
 22 16  1  0  0  0  0
 23 22  1  0  0  0  0
 24 23  1  0  0  0  0
  5  3  1  0  0  0  0
 20 17  2  0  0  0  0
 23 21  1  0  0  0  0
M  END
>  <ID> (6112948)
6112948

>  <Supplier> (6112948)
ChemBridge

>  <clogP> (6112948)
2.610000000000000e+000

>  <RB> (6112948)
4

>  <tPSA> (6112948)
4.061999999999998e+001

>  <Hacc> (6112948)
2

>  <Hdon> (6112948)
0

>  <LogSw> (6112948)
-4.203000000000000e+000

>  <Group> (6112948)
2

>  <Core> (6112948)
001

$$$$
7976631
  -ISIS-  03310818282D

 36 38  0  0  0  0  0  0  0  0999 V2000
    6.2667    2.7375    0.0000 N   0  0  3  0  0  0  0  0  0  0  0  0
    5.5792    2.4333    0.0000 C   0  0  0  0  0  0  0  0  0  0  0  0
    5.6625    1.6875    0.0000 N   0  0  0  0  0  0  0  0  0  0  0  0
    6.7667    2.1833    0.0000 C   0  0  0  0  0  0  0  0  0  0  0  0
    6.3917    1.5333    0.0000 N   0  0  0  0  0  0  0  0  0  0  0  0
    3.6375    2.8083    0.0000 C   0  0  0  0  0  0  0  0  0  0  0  0
    4.2792    2.4333    0.0000 N   0  0  0  0  0  0  0  0  0  0  0  0
    4.9292    2.8083    0.0000 C   0  0  3  0  0  0  0  0  0  0  0  0
    7.5167    2.2708    0.0000 S   0  0  0  0  0  0  0  0  0  0  0  0
   12.1292    1.4375    0.0000 C   0  0  0  0  0  0  0  0  0  0  0  0
    8.7042    1.7333    0.0000 C   0  0  0  0  0  0  0  0  0  0  0  0
    2.9875    2.4333    0.0000 C   0  0  0  0  0  0  0  0  0  0  0  0
   11.3792    1.3625    0.0000 C   0  0  0  0  0  0  0  0  0  0  0  0
    9.1417    1.1250    0.0000 N   0  0  0  0  0  0  0  0  0  0  0  0
    3.6375    3.5583    0.0000 O   0  0  0  0  0  0  0  0  0  0  0  0
   12.5667    0.8333    0.0000 O   0  0  0  0  0  0  0  0  0  0  0  0
    6.4250    3.4833    0.0000 C   0  0  0  0  0  0  0  0  0  0  0  0
    9.0042    2.4208    0.0000 O   0  0  0  0  0  0  0  0  0  0  0  0
    7.1375    3.7083    0.0000 C   0  0  0  0  0  0  0  0  0  0  0  0
    7.9542    1.6583    0.0000 C   0  0  0  0  0  0  0  0  0  0  0  0
    2.3375    2.8083    0.0000 C   0  0  0  0  0  0  0  0  0  0  0  0
    2.9875    1.6833    0.0000 C   0  0  0  0  0  0  0  0  0  0  0  0
   11.0792    0.6750    0.0000 C   0  0  0  0  0  0  0  0  0  0  0  0
   10.9417    1.9708    0.0000 C   0  0  0  0  0  0  0  0  0  0  0  0
    7.2917    4.4292    0.0000 C   0  0  0  0  0  0  0  0  0  0  0  0
    9.8917    1.2083    0.0000 C   0  0  0  0  0  0  0  0  0  0  0  0
    1.6875    1.6833    0.0000 C   0  0  0  0  0  0  0  0  0  0  0  0
   12.4292    2.1250    0.0000 O   0  0  0  0  0  0  0  0  0  0  0  0
   10.1917    1.8958    0.0000 C   0  0  0  0  0  0  0  0  0  0  0  0
   10.3292    0.5958    0.0000 C   0  0  0  0  0  0  0  0  0  0  0  0
    1.6875    2.4333    0.0000 C   0  0  0  0  0  0  0  0  0  0  0  0
    2.3375    1.3083    0.0000 C   0  0  0  0  0  0  0  0  0  0  0  0
    1.0375    1.3083    0.0000 F   0  0  0  0  0  0  0  0  0  0  0  0
    4.9292    3.5583    0.0000 C   0  0  0  0  0  0  0  0  0  0  0  0
   13.1792    2.2083    0.0000 C   0  0  0  0  0  0  0  0  0  0  0  0
   13.4792    2.8958    0.0000 C   0  0  0  0  0  0  0  0  0  0  0  0
  2  1  1  0  0  0  0
  3  2  2  0  0  0  0
  4  1  1  0  0  0  0
  5  4  2  0  0  0  0
  6  7  1  0  0  0  0
  7  8  1  0  0  0  0
  8  2  1  0  0  0  0
  9  4  1  0  0  0  0
 10 13  1  0  0  0  0
 11 20  1  0  0  0  0
 12  6  1  0  0  0  0
 13 23  1  0  0  0  0
 14 11  1  0  0  0  0
 15  6  2  0  0  0  0
 16 10  2  0  0  0  0
 17  1  1  0  0  0  0
 18 11  2  0  0  0  0
 19 17  1  0  0  0  0
 20  9  1  0  0  0  0
 21 12  1  0  0  0  0
 22 12  2  0  0  0  0
 23 30  2  0  0  0  0
 24 29  1  0  0  0  0
 25 19  2  0  0  0  0
 26 14  1  0  0  0  0
 27 32  2  0  0  0  0
 28 10  1  0  0  0  0
 29 26  2  0  0  0  0
 30 26  1  0  0  0  0
 31 21  2  0  0  0  0
 32 22  1  0  0  0  0
 33 27  1  0  0  0  0
 34  8  1  0  0  0  0
 35 28  1  0  0  0  0
 36 35  1  0  0  0  0
  3  5  1  0  0  0  0
 31 27  1  0  0  0  0
 13 24  2  0  0  0  0
M  END
>  <ID> (7976631)
7976631

>  <Supplier> (7976631)
ChemBridge

>  <clogP> (7976631)
3.219000000000000e+000

>  <RB> (7976631)
10

>  <tPSA> (7976631)
1.152100000000000e+002

>  <Hacc> (7976631)
6

>  <Hdon> (7976631)
2

>  <LogSw> (7976631)
-5.677000000000000e+000

>  <Group> (7976631)
1

>  <Core> (7976631)
009

$$$$
7976633
  -ISIS-  03310818282D

 34 38  0  0  0  0  0  0  0  0999 V2000
    2.6417    1.3208    0.0000 C   0  0  0  0  0  0  0  0  0  0  0  0
    2.5625    2.0708    0.0000 C   0  0  0  0  0  0  0  0  0  0  0  0
    1.9542    1.0125    0.0000 S   0  0  0  0  0  0  0  0  0  0  0  0
    1.8292    2.2208    0.0000 C   0  0  0  0  0  0  0  0  0  0  0  0
    1.4542    1.5708    0.0000 C   0  0  0  0  0  0  0  0  0  0  0  0
    7.1875    0.1958    0.0000 C   0  0  0  0  0  0  0  0  0  0  0  0
    6.5375   -0.1792    0.0000 N   0  0  0  0  0  0  0  0  0  0  0  0
    7.1875    0.9458    0.0000 C   0  0  0  0  0  0  0  0  0  0  0  0
    3.2917    0.9458    0.0000 N   0  0  0  0  0  0  0  0  0  0  0  0
    6.5375    1.3208    0.0000 N   0  0  0  0  0  0  0  0  0  0  0  0
    5.8875    0.9458    0.0000 C   0  0  0  0  0  0  0  0  0  0  0  0
    5.8917    0.1958    0.0000 N   0  0  0  0  0  0  0  0  0  0  0  0
    3.1167    2.5708    0.0000 C   0  0  0  0  0  0  0  0  0  0  0  0
    3.6792    3.0708    0.0000 N   0  0  0  0  0  0  0  0  0  0  0  0
    3.9417    1.3208    0.0000 C   0  0  0  0  0  0  0  0  0  0  0  0
    5.2417    1.3208    0.0000 S   0  0  0  0  0  0  0  0  0  0  0  0
    7.8375   -0.1792    0.0000 C   0  0  0  0  0  0  0  0  0  0  0  0
    7.8375    1.3208    0.0000 C   0  0  0  0  0  0  0  0  0  0  0  0
    3.9417    2.0708    0.0000 O   0  0  0  0  0  0  0  0  0  0  0  0
    4.5917    0.9458    0.0000 C   0  0  0  0  0  0  0  0  0  0  0  0
    1.4542    2.8708    0.0000 C   0  0  0  0  0  0  0  0  0  0  0  0
    0.7042    1.5708    0.0000 C   0  0  0  0  0  0  0  0  0  0  0  0
    7.8375   -0.9292    0.0000 C   0  0  0  0  0  0  0  0  0  0  0  0
    8.4875    0.1958    0.0000 C   0  0  0  0  0  0  0  0  0  0  0  0
    8.4875    0.9458    0.0000 C   0  0  0  0  0  0  0  0  0  0  0  0
    7.8375    2.0708    0.0000 C   0  0  0  0  0  0  0  0  0  0  0  0
    0.7042    2.8708    0.0000 C   0  0  0  0  0  0  0  0  0  0  0  0
    0.3292    2.2208    0.0000 C   0  0  0  0  0  0  0  0  0  0  0  0
    9.1375   -0.1792    0.0000 C   0  0  0  0  0  0  0  0  0  0  0  0
    8.4875   -1.3042    0.0000 C   0  0  0  0  0  0  0  0  0  0  0  0
    8.4875    2.4458    0.0000 C   0  0  0  0  0  0  0  0  0  0  0  0
    9.1375    1.3208    0.0000 C   0  0  0  0  0  0  0  0  0  0  0  0
    9.1375    2.0708    0.0000 C   0  0  0  0  0  0  0  0  0  0  0  0
    9.1375   -0.9292    0.0000 C   0  0  0  0  0  0  0  0  0  0  0  0
  2  1  2  0  0  0  0
  3  1  1  0  0  0  0
  4  2  1  0  0  0  0
  5  3  1  0  0  0  0
  6  7  1  0  0  0  0
  7 12  2  0  0  0  0
  8 10  1  0  0  0  0
  9  1  1  0  0  0  0
 10 11  2  0  0  0  0
 11 16  1  0  0  0  0
 12 11  1  0  0  0  0
 13  2  1  0  0  0  0
 14 13  3  0  0  0  0
 15  9  1  0  0  0  0
 16 20  1  0  0  0  0
 17  6  1  0  0  0  0
 18  8  1  0  0  0  0
 19 15  2  0  0  0  0
 20 15  1  0  0  0  0
 21  4  1  0  0  0  0
 22  5  1  0  0  0  0
 23 17  1  0  0  0  0
 24 17  2  0  0  0  0
 25 18  1  0  0  0  0
 26 18  2  0  0  0  0
 27 21  1  0  0  0  0
 28 22  1  0  0  0  0
 29 24  1  0  0  0  0
 30 23  2  0  0  0  0
 31 26  1  0  0  0  0
 32 25  2  0  0  0  0
 33 31  2  0  0  0  0
 34 29  2  0  0  0  0
  5  4  2  0  0  0  0
 27 28  1  0  0  0  0
  8  6  2  0  0  0  0
 33 32  1  0  0  0  0
 34 30  1  0  0  0  0
M  END
>  <ID> (7976633)
7976633

>  <Supplier> (7976633)
ChemBridge

>  <clogP> (7976633)
4.787000000000000e+000

>  <RB> (7976633)
6

>  <tPSA> (7976633)
9.156000000000000e+001

>  <Hacc> (7976633)
5

>  <Hdon> (7976633)
1

>  <LogSw> (7976633)
-7.078000000000000e+000

>  <Group> (7976633)
1

>  <Core> (7976633)
129

$$$$
5132340
  -ISIS-  03310818212D

 24 26  0  0  0  0  0  0  0  0999 V2000
   -2.1333    0.0833    0.0000 C   0  0  0  0  0  0  0  0  0  0  0  0
   -2.0125   -0.7542    0.0000 C   0  0  0  0  0  0  0  0  0  0  0  0
   -1.5000    0.6708    0.0000 N   0  3  0  0  0  0  0  0  0  0  0  0
   -1.2958   -1.2375    0.0000 C   0  0  0  0  0  0  0  0  0  0  0  0
   -3.3958   -0.5167    0.0000 N   0  0  0  0  0  0  0  0  0  0  0  0
   -2.9708    0.2458    0.0000 C   0  0  0  0  0  0  0  0  0  0  0  0
   -2.7958   -1.1375    0.0000 N   0  0  3  0  0  0  0  0  0  0  0  0
   -0.5333   -0.8542    0.0000 N   0  0  0  0  0  0  0  0  0  0  0  0
   -0.6458    0.5000    0.0000 O   0  5  0  0  0  0  0  0  0  0  0  0
   -1.6333    1.5333    0.0000 O   0  0  0  0  0  0  0  0  0  0  0  0
   -1.3500   -2.1000    0.0000 O   0  0  0  0  0  0  0  0  0  0  0  0
    2.4000   -1.1667    0.0000 C   0  0  0  0  0  0  0  0  0  0  0  0
    0.6792   -1.1667    0.0000 C   0  0  0  0  0  0  0  0  0  0  0  0
    1.9792   -0.4500    0.0000 C   0  0  0  0  0  0  0  0  0  0  0  0
    1.9792   -1.9500    0.0000 C   0  0  0  0  0  0  0  0  0  0  0  0
    3.2500   -1.1667    0.0000 C   0  0  3  0  0  0  0  0  0  0  0  0
    1.1042   -0.4292    0.0000 C   0  0  0  0  0  0  0  0  0  0  0  0
    1.1042   -1.9292    0.0000 C   0  0  0  0  0  0  0  0  0  0  0  0
   -2.9333   -2.0000    0.0000 C   0  0  0  0  0  0  0  0  0  0  0  0
    3.7000   -0.4292    0.0000 C   0  0  0  0  0  0  0  0  0  0  0  0
    3.6792   -1.9042    0.0000 C   0  0  0  0  0  0  0  0  0  0  0  0
    4.5500   -0.4292    0.0000 C   0  0  0  0  0  0  0  0  0  0  0  0
    4.5500   -1.9042    0.0000 C   0  0  0  0  0  0  0  0  0  0  0  0
    5.0000   -1.1667    0.0000 C   0  0  0  0  0  0  0  0  0  0  0  0
  2  1  2  0  0  0  0
  3  1  1  0  0  0  0
  4  2  1  0  0  0  0
  5  6  2  0  0  0  0
  6  1  1  0  0  0  0
  7  2  1  0  0  0  0
  8  4  1  0  0  0  0
  9  3  1  0  0  0  0
 10  3  2  0  0  0  0
 11  4  2  0  0  0  0
 12 15  2  0  0  0  0
 13  8  1  0  0  0  0
 14 17  2  0  0  0  0
 15 18  1  0  0  0  0
 16 12  1  0  0  0  0
 17 13  1  0  0  0  0
 18 13  2  0  0  0  0
 19  7  1  0  0  0  0
 20 16  1  0  0  0  0
 21 16  1  0  0  0  0
 22 20  1  0  0  0  0
 23 21  1  0  0  0  0
 24 23  1  0  0  0  0
  5  7  1  0  0  0  0
 12 14  1  0  0  0  0
 22 24  1  0  0  0  0
M  CHG  2   3   1   9  -1
M  END
>  <ID> (5132340)
5132340

>  <Supplier> (5132340)
ChemBridge

>  <clogP> (5132340)
2.910000000000000e+000

>  <RB> (5132340)
3

>  <tPSA> (5132340)
9.006000000000000e+001

>  <Hacc> (5132340)
5

>  <Hdon> (5132340)
1

>  <LogSw> (5132340)
-4.470000000000002e+000

>  <Group> (5132340)
3

$$$$
7119946
  -ISIS-  03310818252D

 26 28  0  0  0  0  0  0  0  0999 V2000
    4.1792    1.8625    0.0000 S   0  0  3  0  0  0  0  0  0  0  0  0
    4.9792    2.3458    0.0000 N   0  0  3  0  0  0  0  0  0  0  0  0
    3.3500    1.3833    0.0000 C   0  0  0  0  0  0  0  0  0  0  0  0
    3.6667    2.6458    0.0000 O   0  0  0  0  0  0  0  0  0  0  0  0
    4.6542    1.0500    0.0000 O   0  0  0  0  0  0  0  0  0  0  0  0
    0.0000    0.0000    0.0000 C   0  0  0  0  0  0  0  0  0  0  0  0
    0.9292    0.0000    0.0000 N   0  0  0  0  0  0  0  0  0  0  0  0
   -0.8208   -0.4542    0.0000 O   0  0  0  0  0  0  0  0  0  0  0  0
    2.5500    1.8333    0.0000 C   0  0  0  0  0  0  0  0  0  0  0  0
    3.3500    0.4500    0.0000 C   0  0  0  0  0  0  0  0  0  0  0  0
    1.7500    0.4500    0.0000 C   0  0  0  0  0  0  0  0  0  0  0  0
    2.5500   -0.0292    0.0000 C   0  0  0  0  0  0  0  0  0  0  0  0
    1.7667    1.3833    0.0000 C   0  0  0  0  0  0  0  0  0  0  0  0
    4.9542    3.2833    0.0000 C   0  0  0  0  0  0  0  0  0  0  0  0
    5.8542    2.0458    0.0000 C   0  0  0  0  0  0  0  0  0  0  0  0
   -1.7125    2.8125    0.0000 C   0  0  0  0  0  0  0  0  0  0  0  0
   -0.0958    0.9500    0.0000 C   0  0  0  0  0  0  0  0  0  0  0  0
   -0.8958    1.4000    0.0000 C   0  0  0  0  0  0  0  0  0  0  0  0
   -0.8958    2.3333    0.0000 C   0  0  0  0  0  0  0  0  0  0  0  0
   -1.7125    3.7458    0.0000 C   0  0  0  0  0  0  0  0  0  0  0  0
   -2.5125    2.3625    0.0000 C   0  0  0  0  0  0  0  0  0  0  0  0
    5.8375    3.5500    0.0000 C   0  0  0  0  0  0  0  0  0  0  0  0
    6.3792    2.8208    0.0000 C   0  0  0  0  0  0  0  0  0  0  0  0
   -3.3125    2.8125    0.0000 C   0  0  0  0  0  0  0  0  0  0  0  0
   -2.5125    4.1875    0.0000 C   0  0  0  0  0  0  0  0  0  0  0  0
   -3.3125    3.7708    0.0000 C   0  0  0  0  0  0  0  0  0  0  0  0
  2  1  1  0  0  0  0
  3  1  1  0  0  0  0
  4  1  2  0  0  0  0
  5  1  2  0  0  0  0
  6  7  1  0  0  0  0
  7 11  1  0  0  0  0
  8  6  2  0  0  0  0
  9  3  1  0  0  0  0
 10  3  2  0  0  0  0
 11 12  2  0  0  0  0
 12 10  1  0  0  0  0
 13  9  2  0  0  0  0
 14  2  1  0  0  0  0
 15  2  1  0  0  0  0
 16 19  1  0  0  0  0
 17  6  1  0  0  0  0
 18 17  1  0  0  0  0
 19 18  1  0  0  0  0
 20 16  2  0  0  0  0
 21 16  1  0  0  0  0
 22 14  1  0  0  0  0
 23 15  1  0  0  0  0
 24 21  2  0  0  0  0
 25 20  1  0  0  0  0
 26 24  1  0  0  0  0
 13 11  1  0  0  0  0
 23 22  1  0  0  0  0
 26 25  2  0  0  0  0
M  END
>  <ID> (7119946)
7119946

>  <Supplier> (7119946)
ChemBridge

>  <clogP> (7119946)
3.920000000000000e+000

>  <RB> (7119946)
6

>  <tPSA> (7119946)
6.647999999999998e+001

>  <Hacc> (7119946)
4

>  <Hdon> (7119946)
1

>  <LogSw> (7119946)
-5.263000000000000e+000

>  <Group> (7119946)
3

>  <Core> (7119946)
234

$$$$
5132344
  -ISIS-  03310818212D

 16 17  0  0  0  0  0  0  0  0999 V2000
   -1.9083    1.7208    0.0000 C   0  0  0  0  0  0  0  0  0  0  0  0
   -2.6333    1.2458    0.0000 N   0  0  3  0  0  0  0  0  0  0  0  0
   -1.1708    1.2500    0.0000 C   0  0  0  0  0  0  0  0  0  0  0  0
   -3.3708    1.7208    0.0000 N   0  0  0  0  0  0  0  0  0  0  0  0
   -1.9083    2.4708    0.0000 C   0  0  0  0  0  0  0  0  0  0  0  0
    0.3500    1.0333    0.0000 N   0  0  0  0  0  0  0  0  0  0  0  0
    1.2375    2.4208    0.0000 C   0  0  0  0  0  0  0  0  0  0  0  0
   -3.3708    2.4708    0.0000 C   0  0  0  0  0  0  0  0  0  0  0  0
    1.2375    1.5458    0.0000 C   0  0  0  0  0  0  0  0  0  0  0  0
    1.8875    2.9333    0.0000 O   0  0  0  0  0  0  0  0  0  0  0  0
   -0.3708    1.5458    0.0000 N   0  0  0  0  0  0  0  0  0  0  0  0
   -1.1708    0.6458    0.0000 O   0  0  0  0  0  0  0  0  0  0  0  0
    0.5875    2.6458    0.0000 C   0  0  0  0  0  0  0  0  0  0  0  0
    1.6792    3.7208    0.0000 C   0  0  0  0  0  0  0  0  0  0  0  0
    1.0375    3.9458    0.0000 C   0  0  0  0  0  0  0  0  0  0  0  0
   -2.6708    0.5500    0.0000 C   0  0  0  0  0  0  0  0  0  0  0  0
  2  1  1  0  0  0  0
  3  1  1  0  0  0  0
  4  2  1  0  0  0  0
  5  1  2  0  0  0  0
  6 11  1  0  0  0  0
  7  9  1  0  0  0  0
  8  5  1  0  0  0  0
  9  6  2  0  0  0  0
 10  7  1  0  0  0  0
 11  3  1  0  0  0  0
 12  3  2  0  0  0  0
 13  7  2  0  0  0  0
 14 10  1  0  0  0  0
 15 13  1  0  0  0  0
 16  2  1  0  0  0  0
  4  8  2  0  0  0  0
 14 15  2  0  0  0  0
M  END
>  <ID> (5132344)
5132344

>  <Supplier> (5132344)
ChemBridge

>  <clogP> (5132344)
4.300000000000000e-001

>  <RB> (5132344)
3

>  <tPSA> (5132344)
7.242000000000000e+001

>  <Hacc> (5132344)
5

>  <Hdon> (5132344)
1

>  <LogSw> (5132344)
-1.160000000000000e+000

>  <Group> (5132344)
3

>  <Core> (5132344)
216

$$$$
7976639
  -ISIS-  03310818282D

 23 25  0  0  0  0  0  0  0  0999 V2000
    0.5042    1.2458    0.0000 C   0  0  0  0  0  0  0  0  0  0  0  0
   -0.1833    1.5458    0.0000 N   0  0  0  0  0  0  0  0  0  0  0  0
   -0.6833    0.9875    0.0000 C   0  0  0  0  0  0  0  0  0  0  0  0
    1.8042    1.2458    0.0000 C   0  0  0  0  0  0  0  0  0  0  0  0
    1.1542    1.6208    0.0000 N   0  0  0  0  0  0  0  0  0  0  0  0
    2.4542    1.6208    0.0000 C   0  0  0  0  0  0  0  0  0  0  0  0
    0.4292    0.4958    0.0000 S   0  0  0  0  0  0  0  0  0  0  0  0
    3.1042    1.2458    0.0000 C   0  0  0  0  0  0  0  0  0  0  0  0
   -1.4250    1.0708    0.0000 C   0  0  0  0  0  0  0  0  0  0  0  0
   -0.3083    0.3375    0.0000 C   0  0  0  0  0  0  0  0  0  0  0  0
    2.4542    2.3708    0.0000 C   0  0  0  0  0  0  0  0  0  0  0  0
    3.7542    1.6208    0.0000 C   0  0  0  0  0  0  0  0  0  0  0  0
    1.8042    0.4958    0.0000 O   0  0  0  0  0  0  0  0  0  0  0  0
   -1.7333    1.7583    0.0000 C   0  0  0  0  0  0  0  0  0  0  0  0
    3.7542    2.3708    0.0000 C   0  0  0  0  0  0  0  0  0  0  0  0
    3.1042    0.4958    0.0000 Cl  0  0  0  0  0  0  0  0  0  0  0  0
    3.1042    2.7458    0.0000 C   0  0  0  0  0  0  0  0  0  0  0  0
   -1.2958    2.3583    0.0000 Cl  0  0  0  0  0  0  0  0  0  0  0  0
    4.4042    2.7458    0.0000 Cl  0  0  0  0  0  0  0  0  0  0  0  0
   -1.8708    0.4583    0.0000 C   0  0  0  0  0  0  0  0  0  0  0  0
   -2.4833    1.8333    0.0000 C   0  0  0  0  0  0  0  0  0  0  0  0
   -2.6125    0.5375    0.0000 C   0  0  0  0  0  0  0  0  0  0  0  0
   -2.9208    1.2250    0.0000 C   0  0  0  0  0  0  0  0  0  0  0  0
  2  1  2  0  0  0  0
  3  2  1  0  0  0  0
  4  5  1  0  0  0  0
  5  1  1  0  0  0  0
  6  4  1  0  0  0  0
  7  1  1  0  0  0  0
  8  6  2  0  0  0  0
  9  3  1  0  0  0  0
 10  7  1  0  0  0  0
 11  6  1  0  0  0  0
 12  8  1  0  0  0  0
 13  4  2  0  0  0  0
 14  9  1  0  0  0  0
 15 17  1  0  0  0  0
 16  8  1  0  0  0  0
 17 11  2  0  0  0  0
 18 14  1  0  0  0  0
 19 15  1  0  0  0  0
 20  9  2  0  0  0  0
 21 14  2  0  0  0  0
 22 20  1  0  0  0  0
 23 22  2  0  0  0  0
 10  3  2  0  0  0  0
 15 12  2  0  0  0  0
 21 23  1  0  0  0  0
M  END
>  <ID> (7976639)
7976639

>  <Supplier> (7976639)
ChemBridge

>  <clogP> (7976639)
5.085000000000000e+000

>  <RB> (7976639)
3

>  <tPSA> (7976639)
4.199000000000000e+001

>  <Hacc> (7976639)
2

>  <Hdon> (7976639)
1

>  <LogSw> (7976639)
-6.340000000000000e+000

>  <Group> (7976639)
1

>  <Core> (7976639)
227

$$$$
5132349
  -ISIS-  03310818212D

 21 22  0  0  0  0  0  0  0  0999 V2000
   -2.0833    0.4458    0.0000 C   0  0  0  0  0  0  0  0  0  0  0  0
   -2.0833   -0.3042    0.0000 C   0  0  0  0  0  0  0  0  0  0  0  0
   -1.3125    0.8333    0.0000 N   0  3  0  0  0  0  0  0  0  0  0  0
   -1.3500   -0.7792    0.0000 C   0  0  0  0  0  0  0  0  0  0  0  0
   -3.5500   -0.3042    0.0000 N   0  0  0  0  0  0  0  0  0  0  0  0
   -3.5500    0.4458    0.0000 C   0  0  0  0  0  0  0  0  0  0  0  0
   -2.8125   -0.7875    0.0000 N   0  0  3  0  0  0  0  0  0  0  0  0
   -0.5500   -0.4875    0.0000 N   0  0  0  0  0  0  0  0  0  0  0  0
   -0.5458    0.4208    0.0000 O   0  5  0  0  0  0  0  0  0  0  0  0
   -1.2000    1.6958    0.0000 O   0  0  0  0  0  0  0  0  0  0  0  0
   -1.3500   -1.3875    0.0000 O   0  0  0  0  0  0  0  0  0  0  0  0
    0.4792    0.2208    0.0000 C   0  0  0  0  0  0  0  0  0  0  0  0
    2.1875    0.2333    0.0000 C   0  0  0  0  0  0  0  0  0  0  0  0
   -2.8500   -1.4792    0.0000 C   0  0  0  0  0  0  0  0  0  0  0  0
    0.8875    0.9500    0.0000 C   0  0  0  0  0  0  0  0  0  0  0  0
    0.9167   -0.5292    0.0000 C   0  0  0  0  0  0  0  0  0  0  0  0
    1.7500    0.9500    0.0000 C   0  0  0  0  0  0  0  0  0  0  0  0
    1.7875   -0.5000    0.0000 C   0  0  0  0  0  0  0  0  0  0  0  0
    3.0667    0.2333    0.0000 O   0  0  0  0  0  0  0  0  0  0  0  0
    3.6042   -0.4042    0.0000 C   0  0  0  0  0  0  0  0  0  0  0  0
    4.4792   -0.1167    0.0000 C   0  0  0  0  0  0  0  0  0  0  0  0
  2  1  2  0  0  0  0
  3  1  1  0  0  0  0
  4  2  1  0  0  0  0
  5  6  2  0  0  0  0
  6  1  1  0  0  0  0
  7  2  1  0  0  0  0
  8  4  1  0  0  0  0
  9  3  1  0  0  0  0
 10  3  2  0  0  0  0
 11  4  2  0  0  0  0
 12  8  1  0  0  0  0
 13 18  2  0  0  0  0
 14  7  1  0  0  0  0
 15 12  1  0  0  0  0
 16 12  2  0  0  0  0
 17 15  2  0  0  0  0
 18 16  1  0  0  0  0
 19 13  1  0  0  0  0
 20 19  1  0  0  0  0
 21 20  1  0  0  0  0
  5  7  1  0  0  0  0
 13 17  1  0  0  0  0
M  CHG  2   3   1   9  -1
M  END
>  <ID> (5132349)
5132349

>  <Supplier> (5132349)
ChemBridge

>  <clogP> (5132349)
7.400000000000000e-001

>  <RB> (5132349)
2

>  <tPSA> (5132349)
9.929000000000002e+001

>  <Hacc> (5132349)
6

>  <Hdon> (5132349)
1

>  <LogSw> (5132349)
-2.339000000000000e+000

>  <Group> (5132349)
3

$$$$
5854562
  -ISIS-  03310818232D

 26 29  0  0  0  0  0  0  0  0999 V2000
   -2.2833   -1.7667    0.0000 C   0  0  0  0  0  0  0  0  0  0  0  0
    2.2500    1.7708    0.0000 C   0  0  0  0  0  0  0  0  0  0  0  0
    2.2500    0.8833    0.0000 N   0  0  0  0  0  0  0  0  0  0  0  0
   -2.2833   -0.8875    0.0000 N   0  0  0  0  0  0  0  0  0  0  0  0
   -1.5333   -2.2042    0.0000 C   0  0  0  0  0  0  0  0  0  0  0  0
    1.5000    2.2125    0.0000 C   0  0  0  0  0  0  0  0  0  0  0  0
   -0.0125    0.4458    0.0000 C   0  0  0  0  0  0  0  0  0  0  0  0
   -0.0125   -0.4375    0.0000 C   0  0  0  0  0  0  0  0  0  0  0  0
    3.0042    2.2125    0.0000 C   0  0  0  0  0  0  0  0  0  0  0  0
   -3.0333   -2.2042    0.0000 C   0  0  0  0  0  0  0  0  0  0  0  0
   -0.7625   -1.7500    0.0000 S   0  0  0  0  0  0  0  0  0  0  0  0
    0.7500    1.7708    0.0000 S   0  0  0  0  0  0  0  0  0  0  0  0
    0.7500    0.8833    0.0000 C   0  0  0  0  0  0  0  0  0  0  0  0
   -0.7625   -0.8792    0.0000 C   0  0  0  0  0  0  0  0  0  0  0  0
   -2.2833   -3.5167    0.0000 C   0  0  0  0  0  0  0  0  0  0  0  0
    2.2500    3.5208    0.0000 C   0  0  0  0  0  0  0  0  0  0  0  0
   -3.0333   -0.4542    0.0000 C   0  0  0  0  0  0  0  0  0  0  0  0
    3.0042    0.4458    0.0000 C   0  0  0  0  0  0  0  0  0  0  0  0
   -1.5333   -3.0792    0.0000 C   0  0  0  0  0  0  0  0  0  0  0  0
    1.5000    3.0833    0.0000 C   0  0  0  0  0  0  0  0  0  0  0  0
   -3.0333   -3.0792    0.0000 C   0  0  0  0  0  0  0  0  0  0  0  0
    3.0042    3.0833    0.0000 C   0  0  0  0  0  0  0  0  0  0  0  0
    3.7667    1.7708    0.0000 C   0  0  0  0  0  0  0  0  0  0  0  0
   -3.7958   -1.7667    0.0000 C   0  0  0  0  0  0  0  0  0  0  0  0
    3.7667    0.8833    0.0000 C   0  0  0  0  0  0  0  0  0  0  0  0
   -3.7958   -0.8875    0.0000 C   0  0  0  0  0  0  0  0  0  0  0  0
  2  6  2  0  0  0  0
  3  2  1  0  0  0  0
  4  1  1  0  0  0  0
  5  1  2  0  0  0  0
  6 12  1  0  0  0  0
  7  8  2  0  0  0  0
  8 14  1  0  0  0  0
  9  2  1  0  0  0  0
 10  1  1  0  0  0  0
 11  5  1  0  0  0  0
 12 13  1  0  0  0  0
 13  7  1  0  0  0  0
 14 11  1  0  0  0  0
 15 21  1  0  0  0  0
 16 20  2  0  0  0  0
 17  4  2  0  0  0  0
 18  3  2  0  0  0  0
 19  5  1  0  0  0  0
 20  6  1  0  0  0  0
 21 10  2  0  0  0  0
 22 16  1  0  0  0  0
 23  9  1  0  0  0  0
 24 10  1  0  0  0  0
 25 23  2  0  0  0  0
 26 24  2  0  0  0  0
 19 15  2  0  0  0  0
 17 26  1  0  0  0  0
 22  9  2  0  0  0  0
 18 25  1  0  0  0  0
M  END
>  <ID> (5854562)
5854562

>  <Supplier> (5854562)
ChemBridge

>  <clogP> (5854562)
5.450000000000000e+000

>  <RB> (5854562)
6

>  <tPSA> (5854562)
2.578000000000000e+001

>  <Hacc> (5854562)
2

>  <Hdon> (5854562)
0

>  <LogSw> (5854562)
-7.694999999999998e+000

>  <Group> (5854562)
3

$$$$
7994121
  -ISIS-  03310818282D

 21 22  0  0  0  0  0  0  0  0999 V2000
    6.9792    2.6125    0.0000 N   0  0  0  0  0  0  0  0  0  0  0  0
    6.2917    2.3083    0.0000 C   0  0  0  0  0  0  0  0  0  0  0  0
    6.3750    1.5625    0.0000 N   0  0  0  0  0  0  0  0  0  0  0  0
    7.1042    1.4083    0.0000 N   0  0  0  0  0  0  0  0  0  0  0  0
    7.4792    2.0583    0.0000 C   0  0  0  0  0  0  0  0  0  0  0  0
    5.6417    2.6833    0.0000 S   0  0  0  0  0  0  0  0  0  0  0  0
    4.3417    2.6833    0.0000 C   0  0  0  0  0  0  0  0  0  0  0  0
    3.7000    2.3083    0.0000 C   0  0  0  0  0  0  0  0  0  0  0  0
    4.9917    2.3083    0.0000 C   0  0  0  0  0  0  0  0  0  0  0  0
    4.3417    3.4333    0.0000 O   0  0  0  0  0  0  0  0  0  0  0  0
    3.0500    2.6833    0.0000 C   0  0  0  0  0  0  0  0  0  0  0  0
    3.7000    1.5583    0.0000 C   0  0  0  0  0  0  0  0  0  0  0  0
    2.4000    1.5583    0.0000 C   0  0  0  0  0  0  0  0  0  0  0  0
    3.0500    1.1833    0.0000 C   0  0  0  0  0  0  0  0  0  0  0  0
    2.4000    2.3083    0.0000 C   0  0  0  0  0  0  0  0  0  0  0  0
    1.7500    1.1833    0.0000 O   0  0  0  0  0  0  0  0  0  0  0  0
    8.2292    2.1333    0.0000 C   0  0  0  0  0  0  0  0  0  0  0  0
    1.1000    1.5583    0.0000 C   0  0  0  0  0  0  0  0  0  0  0  0
    8.6667    1.5333    0.0000 C   0  0  0  0  0  0  0  0  0  0  0  0
    9.4167    1.6083    0.0000 C   0  0  0  0  0  0  0  0  0  0  0  0
    9.8542    1.0000    0.0000 C   0  0  0  0  0  0  0  0  0  0  0  0
  2  1  1  0  0  0  0
  3  2  2  0  0  0  0
  4  5  2  0  0  0  0
  5  1  1  0  0  0  0
  6  2  1  0  0  0  0
  7  9  1  0  0  0  0
  8  7  1  0  0  0  0
  9  6  1  0  0  0  0
 10  7  2  0  0  0  0
 11  8  1  0  0  0  0
 12  8  2  0  0  0  0
 13 14  2  0  0  0  0
 14 12  1  0  0  0  0
 15 11  2  0  0  0  0
 16 13  1  0  0  0  0
 17  5  1  0  0  0  0
 18 16  1  0  0  0  0
 19 17  1  0  0  0  0
 20 19  1  0  0  0  0
 21 20  1  0  0  0  0
  3  4  1  0  0  0  0
 15 13  1  0  0  0  0
M  END
>  <ID> (7994121)
7994121

>  <Supplier> (7994121)
ChemBridge

>  <clogP> (7994121)
2.820000000000000e+000

>  <RB> (7994121)
5

>  <tPSA> (7994121)
6.787000000000001e+001

>  <Hacc> (7994121)
4

>  <Hdon> (7994121)
1

>  <LogSw> (7994121)
-3.835999999999999e+000

>  <Group> (7994121)
2

>  <Core> (7994121)
030

$$$$
6164058
  -ISIS-  03310818232D

 32 33  0  0  0  0  0  0  0  0999 V2000
   -1.1000   -0.4042    0.0000 C   0  0  0  0  0  0  0  0  0  0  0  0
   -2.1458   -1.0500    0.0000 C   0  0  0  0  0  0  0  0  0  0  0  0
   -1.8125   -0.4292    0.0000 N   0  0  0  0  0  0  0  0  0  0  0  0
   -2.8625   -1.0875    0.0000 C   0  0  0  0  0  0  0  0  0  0  0  0
   -4.2958   -1.1000    0.0000 C   0  0  0  0  0  0  0  0  0  0  0  0
   -0.7500   -1.0042    0.0000 C   0  0  0  0  0  0  0  0  0  0  0  0
   -3.9333   -0.4542    0.0000 C   0  0  0  0  0  0  0  0  0  0  0  0
   -3.9125   -1.7042    0.0000 C   0  0  0  0  0  0  0  0  0  0  0  0
   -0.7833    0.2125    0.0000 C   0  0  0  0  0  0  0  0  0  0  0  0
   -3.2125   -0.4667    0.0000 C   0  0  0  0  0  0  0  0  0  0  0  0
   -3.2125   -1.7042    0.0000 C   0  0  0  0  0  0  0  0  0  0  0  0
    0.3000   -2.8167    0.0000 C   0  0  0  0  0  0  0  0  0  0  0  0
   -1.7708   -1.6542    0.0000 O   0  0  0  0  0  0  0  0  0  0  0  0
   -0.0500   -2.2042    0.0000 C   0  0  0  0  0  0  0  0  0  0  0  0
   -1.0708   -1.6375    0.0000 O   0  0  0  0  0  0  0  0  0  0  0  0
    1.0042   -2.8292    0.0000 O   0  0  0  0  0  0  0  0  0  0  0  0
   -0.0500   -1.0042    0.0000 N   0  0  0  0  0  0  0  0  0  0  0  0
   -0.0958    0.2458    0.0000 C   0  0  0  0  0  0  0  0  0  0  0  0
   -4.9958   -1.1167    0.0000 O   0  0  0  0  0  0  0  0  0  0  0  0
    0.3000   -1.6042    0.0000 C   0  0  0  0  0  0  0  0  0  0  0  0
   -4.2708    0.1500    0.0000 O   0  0  0  0  0  0  0  0  0  0  0  0
   -4.2333   -2.3292    0.0000 O   0  0  0  0  0  0  0  0  0  0  0  0
    1.3292    0.2708    0.0000 C   0  0  0  0  0  0  0  0  0  0  0  0
   -0.0458   -3.4500    0.0000 O   0  0  0  0  0  0  0  0  0  0  0  0
    2.0292    0.3000    0.0000 Br  0  0  0  0  0  0  0  0  0  0  0  0
    0.2375    0.8500    0.0000 C   0  0  0  0  0  0  0  0  0  0  0  0
    0.2875   -0.3542    0.0000 C   0  0  0  0  0  0  0  0  0  0  0  0
    0.9875   -0.3542    0.0000 C   0  0  0  0  0  0  0  0  0  0  0  0
    0.9375    0.8625    0.0000 C   0  0  0  0  0  0  0  0  0  0  0  0
   -5.3208   -1.7292    0.0000 C   0  0  0  0  0  0  0  0  0  0  0  0
   -4.9708    0.1625    0.0000 C   0  0  0  0  0  0  0  0  0  0  0  0
   -3.8500   -2.9167    0.0000 C   0  0  0  0  0  0  0  0  0  0  0  0
  2  3  1  0  0  0  0
  3  1  1  0  0  0  0
  4  2  1  0  0  0  0
  5  8  2  0  0  0  0
  6  1  1  0  0  0  0
  7 10  2  0  0  0  0
  8 11  1  0  0  0  0
  9  1  2  0  0  0  0
 10  4  1  0  0  0  0
 11  4  2  0  0  0  0
 12 14  1  0  0  0  0
 13  2  2  0  0  0  0
 14 20  1  0  0  0  0
 15  6  2  0  0  0  0
 16 12  2  0  0  0  0
 17  6  1  0  0  0  0
 18  9  1  0  0  0  0
 19  5  1  0  0  0  0
 20 17  1  0  0  0  0
 21  7  1  0  0  0  0
 22  8  1  0  0  0  0
 23 28  2  0  0  0  0
 24 12  1  0  0  0  0
 25 23  1  0  0  0  0
 26 18  1  0  0  0  0
 27 18  2  0  0  0  0
 28 27  1  0  0  0  0
 29 26  2  0  0  0  0
 30 19  1  0  0  0  0
 31 21  1  0  0  0  0
 32 22  1  0  0  0  0
 23 29  1  0  0  0  0
  5  7  1  0  0  0  0
M  END
>  <ID> (6164058)
6164058

>  <Supplier> (6164058)
ChemBridge

>  <clogP> (6164058)
2.730000000000000e+000

>  <RB> (6164058)
7

>  <tPSA> (6164058)
1.231900000000000e+002

>  <Hacc> (6164058)
7

>  <Hdon> (6164058)
3

>  <LogSw> (6164058)
-5.229000000000000e+000

>  <Group> (6164058)
1

>  <Core> (6164058)
008

$$$$
6144169
  -ISIS-  03310818232D

 24 27  0  0  0  0  0  0  0  0999 V2000
   -0.1958    1.8333    0.0000 S   0  0  3  0  0  0  0  0  0  0  0  0
    0.0292    2.2333    0.0000 N   0  0  0  0  0  0  0  0  0  0  0  0
    0.1542    1.6708    0.0000 C   0  0  0  0  0  0  0  0  0  0  0  0
   -0.6458    3.1458    0.0000 C   0  0  3  0  0  0  0  0  0  0  0  0
   -0.8833    2.3833    0.0000 C   0  0  3  0  0  0  0  0  0  0  0  0
   -0.5500    2.6708    0.0000 C   0  0  3  0  0  0  0  0  0  0  0  0
   -0.2125    2.6333    0.0000 C   0  0  3  0  0  0  0  0  0  0  0  0
    0.1875    1.2708    0.0000 C   0  0  0  0  0  0  0  0  0  0  0  0
   -0.4125    1.4125    0.0000 O   0  0  0  0  0  0  0  0  0  0  0  0
   -0.6125    2.0500    0.0000 O   0  0  0  0  0  0  0  0  0  0  0  0
   -0.9958    2.7708    0.0000 C   0  0  3  0  0  0  0  0  0  0  0  0
   -1.4458    2.9958    0.0000 C   0  0  3  0  0  0  0  0  0  0  0  0
    0.4875    1.8958    0.0000 C   0  0  0  0  0  0  0  0  0  0  0  0
   -0.9500    2.9958    0.0000 C   0  0  0  0  0  0  0  0  0  0  0  0
   -0.7958    2.8500    0.0000 C   0  0  0  0  0  0  0  0  0  0  0  0
   -1.0625    3.2833    0.0000 C   0  0  0  0  0  0  0  0  0  0  0  0
   -1.3333    2.5208    0.0000 C   0  0  0  0  0  0  0  0  0  0  0  0
    0.5500    1.0958    0.0000 C   0  0  0  0  0  0  0  0  0  0  0  0
   -1.1333    2.9708    0.0000 C   0  0  0  0  0  0  0  0  0  0  0  0
    0.8667    1.7000    0.0000 C   0  0  0  0  0  0  0  0  0  0  0  0
    0.8792    1.3125    0.0000 C   0  0  0  0  0  0  0  0  0  0  0  0
    0.0042    3.0333    0.0000 C   0  0  0  0  0  0  0  0  0  0  0  0
   -0.1458    1.0500    0.0000 C   0  0  0  0  0  0  0  0  0  0  0  0
    1.2167    1.1458    0.0000 C   0  0  0  0  0  0  0  0  0  0  0  0
  2  1  1  0  0  0  0
  3  1  1  0  0  0  0
  4  6  1  0  0  0  0
  5  6  1  0  0  0  0
  6  7  1  0  0  0  0
  7  2  1  0  0  0  0
  8  3  1  0  0  0  0
  9  1  2  0  0  0  0
 10  1  2  0  0  0  0
 11 15  1  0  0  0  0
 12 17  1  0  0  0  0
 13  3  2  0  0  0  0
 14  4  1  0  0  0  0
 15  5  1  0  0  0  0
 16  4  1  0  0  0  0
 17  5  1  0  0  0  0
 18  8  2  0  0  0  0
 19 12  1  0  0  0  0
 20 13  1  0  0  0  0
 21 20  2  0  0  0  0
 22  7  1  0  0  0  0
 23  8  1  0  0  0  0
 24 21  1  0  0  0  0
 18 21  1  0  0  0  0
 16 12  1  0  0  0  0
 14 11  1  0  0  0  0
 11 19  1  0  0  0  0
M  END
>  <ID> (6144169)
6144169

>  <Supplier> (6144169)
ChemBridge

>  <clogP> (6144169)
5.500000000000000e+000

>  <RB> (6144169)
3

>  <tPSA> (6144169)
4.616999999999997e+001

>  <Hacc> (6144169)
3

>  <Hdon> (6144169)
1

>  <LogSw> (6144169)
-6.431000000000003e+000

>  <Group> (6144169)
2

$$$$
6144168
  -ISIS-  03310818232D

 30 33  0  0  0  0  0  0  0  0999 V2000
   -1.5708    1.4958    0.0000 C   0  0  0  0  0  0  0  0  0  0  0  0
   -0.6125   -0.0042    0.0000 S   0  0  3  0  0  0  0  0  0  0  0  0
   -1.9708    1.5125    0.0000 C   0  0  0  0  0  0  0  0  0  0  0  0
   -1.3333    1.8333    0.0000 C   0  0  0  0  0  0  0  0  0  0  0  0
   -1.4500    1.1125    0.0000 C   0  0  0  0  0  0  0  0  0  0  0  0
   -2.1125    1.1125    0.0000 O   0  0  0  0  0  0  0  0  0  0  0  0
   -1.7958    0.8708    0.0000 C   0  0  0  0  0  0  0  0  0  0  0  0
   -0.6708    0.3958    0.0000 N   0  0  0  0  0  0  0  0  0  0  0  0
   -0.5500   -0.4292    0.0000 C   0  0  0  0  0  0  0  0  0  0  0  0
   -0.9333    1.7708    0.0000 O   0  0  0  0  0  0  0  0  0  0  0  0
   -1.0125   -0.0667    0.0000 O   0  0  0  0  0  0  0  0  0  0  0  0
   -0.1958    0.0500    0.0000 O   0  0  0  0  0  0  0  0  0  0  0  0
   -0.1708   -0.5667    0.0000 C   0  0  0  0  0  0  0  0  0  0  0  0
   -1.0958    0.9500    0.0000 C   0  0  0  0  0  0  0  0  0  0  0  0
   -1.4958    2.1958    0.0000 O   0  0  0  0  0  0  0  0  0  0  0  0
   -1.0500    0.5500    0.0000 C   0  0  0  0  0  0  0  0  0  0  0  0
   -0.0958   -0.9667    0.0000 C   0  0  0  0  0  0  0  0  0  0  0  0
   -1.7500    0.4708    0.0000 C   0  0  0  0  0  0  0  0  0  0  0  0
   -0.8500   -0.6667    0.0000 C   0  0  0  0  0  0  0  0  0  0  0  0
   -0.4125   -1.2292    0.0000 C   0  0  0  0  0  0  0  0  0  0  0  0
   -0.7958   -1.0667    0.0000 C   0  0  0  0  0  0  0  0  0  0  0  0
   -1.3708    0.3125    0.0000 C   0  0  0  0  0  0  0  0  0  0  0  0
   -2.2125    1.8500    0.0000 C   0  0  0  0  0  0  0  0  0  0  0  0
   -0.7708    1.4125    0.0000 C   0  0  3  0  0  0  0  0  0  0  0  0
    0.3000   -1.1292    0.0000 C   0  0  0  0  0  0  0  0  0  0  0  0
   -0.3708   -1.6292    0.0000 C   0  0  0  0  0  0  0  0  0  0  0  0
   -1.0333    1.0958    0.0000 C   0  0  0  0  0  0  0  0  0  0  0  0
   -0.3708    1.3500    0.0000 C   0  0  0  0  0  0  0  0  0  0  0  0
    0.3500   -1.5375    0.0000 C   0  0  0  0  0  0  0  0  0  0  0  0
    0.0042   -1.7875    0.0000 C   0  0  0  0  0  0  0  0  0  0  0  0
  2  8  1  0  0  0  0
  3  1  2  0  0  0  0
  4  1  1  0  0  0  0
  5  1  1  0  0  0  0
  6  3  1  0  0  0  0
  7  5  1  0  0  0  0
  8 16  1  0  0  0  0
  9  2  1  0  0  0  0
 10  4  1  0  0  0  0
 11  2  2  0  0  0  0
 12  2  2  0  0  0  0
 13  9  1  0  0  0  0
 14  5  2  0  0  0  0
 15  4  2  0  0  0  0
 16 14  1  0  0  0  0
 17 13  2  0  0  0  0
 18  7  2  0  0  0  0
 19  9  2  0  0  0  0
 20 21  2  0  0  0  0
 21 19  1  0  0  0  0
 22 16  2  0  0  0  0
 23  3  1  0  0  0  0
 24 10  1  0  0  0  0
 25 17  1  0  0  0  0
 26 20  1  0  0  0  0
 27 24  1  0  0  0  0
 28 24  1  0  0  0  0
 29 25  2  0  0  0  0
 30 26  2  0  0  0  0
  7  6  1  0  0  0  0
 22 18  1  0  0  0  0
 20 17  1  0  0  0  0
 30 29  1  0  0  0  0
M  END
>  <ID> (6144168)
6144168

>  <Supplier> (6144168)
ChemBridge

>  <clogP> (6144168)
5.880000000000000e+000

>  <RB> (6144168)
4

>  <tPSA> (6144168)
8.561000000000000e+001

>  <Hacc> (6144168)
5

>  <Hdon> (6144168)
1

>  <LogSw> (6144168)
-8.419000000000002e+000

>  <Group> (6144168)
3

>  <Core> (6144168)
516

$$$$
6212509
  -ISIS-  03310818232D

 24 26  0  0  0  0  0  0  0  0999 V2000
   -1.5208   -1.0167    0.0000 C   0  0  0  0  0  0  0  0  0  0  0  0
   -1.4833   -1.9167    0.0000 C   0  0  3  0  0  0  0  0  0  0  0  0
   -0.6000   -2.1792    0.0000 N   0  0  0  0  0  0  0  0  0  0  0  0
   -0.6625   -0.7000    0.0000 C   0  0  0  0  0  0  0  0  0  0  0  0
   -0.1000   -1.4000    0.0000 C   0  0  0  0  0  0  0  0  0  0  0  0
   -2.3000   -0.5000    0.0000 C   0  0  0  0  0  0  0  0  0  0  0  0
   -2.3458   -2.2375    0.0000 C   0  0  0  0  0  0  0  0  0  0  0  0
   -2.2458    0.4458    0.0000 C   0  0  0  0  0  0  0  0  0  0  0  0
    0.8375   -1.3375    0.0000 O   0  0  0  0  0  0  0  0  0  0  0  0
   -3.1458   -0.9000    0.0000 O   0  0  0  0  0  0  0  0  0  0  0  0
   -0.3833    0.2000    0.0000 O   0  0  0  0  0  0  0  0  0  0  0  0
   -2.5000   -3.1542    0.0000 C   0  0  0  0  0  0  0  0  0  0  0  0
   -3.0458   -1.6542    0.0000 C   0  0  0  0  0  0  0  0  0  0  0  0
   -1.4000    0.8458    0.0000 C   0  0  0  0  0  0  0  0  0  0  0  0
   -3.0000    0.9625    0.0000 C   0  0  0  0  0  0  0  0  0  0  0  0
   -2.1000    2.2833    0.0000 C   0  0  0  0  0  0  0  0  0  0  0  0
   -4.0625   -2.8792    0.0000 C   0  0  0  0  0  0  0  0  0  0  0  0
   -1.3208    1.7625    0.0000 C   0  0  0  0  0  0  0  0  0  0  0  0
   -2.9458    1.8833    0.0000 C   0  0  0  0  0  0  0  0  0  0  0  0
   -3.3625   -3.4792    0.0000 C   0  0  0  0  0  0  0  0  0  0  0  0
   -3.9208   -2.0000    0.0000 C   0  0  0  0  0  0  0  0  0  0  0  0
   -2.0458    3.2083    0.0000 Br  0  0  0  0  0  0  0  0  0  0  0  0
   -4.9333   -3.1667    0.0000 O   0  0  0  0  0  0  0  0  0  0  0  0
   -5.6125   -2.5667    0.0000 C   0  0  0  0  0  0  0  0  0  0  0  0
  2  1  1  0  0  0  0
  3  2  1  0  0  0  0
  4  1  2  0  0  0  0
  5  4  1  0  0  0  0
  6  1  1  0  0  0  0
  7  2  1  0  0  0  0
  8  6  1  0  0  0  0
  9  5  2  0  0  0  0
 10  6  2  0  0  0  0
 11  4  1  0  0  0  0
 12  7  1  0  0  0  0
 13  7  2  0  0  0  0
 14  8  2  0  0  0  0
 15  8  1  0  0  0  0
 16 19  1  0  0  0  0
 17 21  2  0  0  0  0
 18 14  1  0  0  0  0
 19 15  2  0  0  0  0
 20 12  2  0  0  0  0
 21 13  1  0  0  0  0
 22 16  1  0  0  0  0
 23 17  1  0  0  0  0
 24 23  1  0  0  0  0
  3  5  1  0  0  0  0
 18 16  2  0  0  0  0
 17 20  1  0  0  0  0
M  END
>  <ID> (6212509)
6212509

>  <Supplier> (6212509)
ChemBridge

>  <clogP> (6212509)
3.370000000000000e+000

>  <RB> (6212509)
3

>  <tPSA> (6212509)
7.563000000000000e+001

>  <Hacc> (6212509)
4

>  <Hdon> (6212509)
2

>  <LogSw> (6212509)
-4.908000000000000e+000

>  <Group> (6212509)
1

>  <Core> (6212509)
095

$$$$
6212508
  -ISIS-  03310818232D

 17 18  0  0  0  0  0  0  0  0999 V2000
   -2.9625    0.6333    0.0000 C   0  0  0  0  0  0  0  0  0  0  0  0
   -3.8333   -0.5667    0.0000 C   0  0  0  0  0  0  0  0  0  0  0  0
   -5.2500    1.3500    0.0000 N   0  0  0  0  0  0  0  0  0  0  0  0
   -5.2458   -0.1042    0.0000 N   0  0  0  0  0  0  0  0  0  0  0  0
   -1.4458    0.6500    0.0000 N   0  0  0  0  0  0  0  0  0  0  0  0
   -3.8000    1.8125    0.0000 C   0  0  0  0  0  0  0  0  0  0  0  0
    3.0042   -1.9542    0.0000 C   0  0  0  0  0  0  0  0  0  0  0  0
    1.5292   -1.9542    0.0000 C   0  0  0  0  0  0  0  0  0  0  0  0
   -0.7000   -0.6375    0.0000 N   0  0  0  0  0  0  0  0  0  0  0  0
   -3.3500   -2.0000    0.0000 O   0  0  0  0  0  0  0  0  0  0  0  0
    3.7542   -0.6375    0.0000 C   0  0  0  0  0  0  0  0  0  0  0  0
    0.7792   -0.6375    0.0000 C   0  0  0  0  0  0  0  0  0  0  0  0
    3.0042    0.6458    0.0000 C   0  0  0  0  0  0  0  0  0  0  0  0
    3.7875   -3.2375    0.0000 Cl  0  0  0  0  0  0  0  0  0  0  0  0
    5.2500   -0.6375    0.0000 Br  0  0  0  0  0  0  0  0  0  0  0  0
    1.5292    0.6458    0.0000 C   0  0  0  0  0  0  0  0  0  0  0  0
   -3.3125    3.2458    0.0000 C   0  0  0  0  0  0  0  0  0  0  0  0
  2  1  1  0  0  0  0
  3  6  2  0  0  0  0
  4  2  1  0  0  0  0
  5  1  2  0  0  0  0
  6  1  1  0  0  0  0
  7  8  1  0  0  0  0
  8 12  2  0  0  0  0
  9  5  1  0  0  0  0
 10  2  2  0  0  0  0
 11 13  1  0  0  0  0
 12  9  1  0  0  0  0
 13 16  2  0  0  0  0
 14  7  1  0  0  0  0
 15 11  1  0  0  0  0
 16 12  1  0  0  0  0
 17  6  1  0  0  0  0
  4  3  1  0  0  0  0
 11  7  2  0  0  0  0
M  END
>  <ID> (6212508)
6212508

>  <Supplier> (6212508)
ChemBridge

>  <clogP> (6212508)
4.220000000000000e+000

>  <RB> (6212508)
2

>  <tPSA> (6212508)
6.584999999999997e+001

>  <Hacc> (6212508)
3

>  <Hdon> (6212508)
2

>  <LogSw> (6212508)
-5.105000000000000e+000

>  <Group> (6212508)
1

>  <Core> (6212508)
381

$$$$
6144166
  -ISIS-  03310818232D

 19 20  0  0  0  0  0  0  0  0999 V2000
    1.9542    0.5958    0.0000 C   0  0  0  0  0  0  0  0  0  0  0  0
   -0.8958    0.5958    0.0000 C   0  0  0  0  0  0  0  0  0  0  0  0
    2.6667    0.1875    0.0000 N   0  0  0  0  0  0  0  0  0  0  0  0
   -0.1750    0.1750    0.0000 C   0  0  0  0  0  0  0  0  0  0  0  0
    0.5417    0.5875    0.0000 O   0  0  0  0  0  0  0  0  0  0  0  0
    1.9500    1.4125    0.0000 O   0  0  0  0  0  0  0  0  0  0  0  0
   -1.6000    0.1750    0.0000 C   0  0  0  0  0  0  0  0  0  0  0  0
    1.2500    0.1750    0.0000 C   0  0  0  0  0  0  0  0  0  0  0  0
    3.3792   -0.2167    0.0000 C   0  0  3  0  0  0  0  0  0  0  0  0
   -0.8958   -1.0625    0.0000 C   0  0  0  0  0  0  0  0  0  0  0  0
   -0.8958    1.4208    0.0000 C   0  0  0  0  0  0  0  0  0  0  0  0
   -0.1750   -0.6500    0.0000 C   0  0  0  0  0  0  0  0  0  0  0  0
   -1.6000   -0.6500    0.0000 C   0  0  0  0  0  0  0  0  0  0  0  0
   -2.3208    0.5875    0.0000 C   0  0  0  0  0  0  0  0  0  0  0  0
    4.0917    0.1958    0.0000 C   0  0  0  0  0  0  0  0  0  0  0  0
    3.3875   -1.0375    0.0000 C   0  0  0  0  0  0  0  0  0  0  0  0
    4.0917   -1.4417    0.0000 C   0  0  0  0  0  0  0  0  0  0  0  0
    4.8042   -0.2042    0.0000 C   0  0  0  0  0  0  0  0  0  0  0  0
    4.8042   -1.0292    0.0000 C   0  0  0  0  0  0  0  0  0  0  0  0
  2  4  1  0  0  0  0
  3  1  1  0  0  0  0
  4  5  1  0  0  0  0
  5  8  1  0  0  0  0
  6  1  2  0  0  0  0
  7  2  2  0  0  0  0
  8  1  1  0  0  0  0
  9  3  1  0  0  0  0
 10 12  1  0  0  0  0
 11  2  1  0  0  0  0
 12  4  2  0  0  0  0
 13 10  2  0  0  0  0
 14  7  1  0  0  0  0
 15  9  1  0  0  0  0
 16  9  1  0  0  0  0
 17 16  1  0  0  0  0
 18 15  1  0  0  0  0
 19 17  1  0  0  0  0
 19 18  1  0  0  0  0
  7 13  1  0  0  0  0
M  END
>  <ID> (6144166)
6144166

>  <Supplier> (6144166)
ChemBridge

>  <clogP> (6144166)
3.800000000000000e+000

>  <RB> (6144166)
4

>  <tPSA> (6144166)
3.833000000000000e+001

>  <Hacc> (6144166)
2

>  <Hdon> (6144166)
1

>  <LogSw> (6144166)
-4.351999999999999e+000

>  <Group> (6144166)
3

>  <Core> (6144166)
315

$$$$
7568416
  -ISIS-  03310818262D

 21 22  0  0  0  0  0  0  0  0999 V2000
    3.4292   -0.3042    0.0000 C   0  0  0  0  0  0  0  0  0  0  0  0
    4.1167   -0.6125    0.0000 N   0  0  0  0  0  0  0  0  0  0  0  0
    3.5125    0.4375    0.0000 N   0  0  0  0  0  0  0  0  0  0  0  0
    4.2417    0.5958    0.0000 N   0  0  0  0  0  0  0  0  0  0  0  0
    4.6167   -0.0542    0.0000 N   0  0  3  0  0  0  0  0  0  0  0  0
    2.7792   -0.6792    0.0000 N   0  0  0  0  0  0  0  0  0  0  0  0
    2.1292   -0.3042    0.0000 C   0  0  0  0  0  0  0  0  0  0  0  0
    0.1792   -1.4292    0.0000 C   0  0  0  0  0  0  0  0  0  0  0  0
    0.1875   -0.6792    0.0000 C   0  0  0  0  0  0  0  0  0  0  0  0
    0.8292   -0.3042    0.0000 O   0  0  0  0  0  0  0  0  0  0  0  0
   -0.4708   -1.8042    0.0000 C   0  0  0  0  0  0  0  0  0  0  0  0
    2.1292    0.4458    0.0000 O   0  0  0  0  0  0  0  0  0  0  0  0
   -0.4625   -0.3042    0.0000 C   0  0  0  0  0  0  0  0  0  0  0  0
    1.4792   -0.6792    0.0000 C   0  0  0  0  0  0  0  0  0  0  0  0
   -1.1125   -1.4292    0.0000 C   0  0  0  0  0  0  0  0  0  0  0  0
    5.3667   -0.1375    0.0000 C   0  0  0  0  0  0  0  0  0  0  0  0
   -1.1125   -0.6792    0.0000 C   0  0  0  0  0  0  0  0  0  0  0  0
    0.8292   -1.8042    0.0000 C   0  0  0  0  0  0  0  0  0  0  0  0
   -1.7625   -1.8042    0.0000 C   0  0  0  0  0  0  0  0  0  0  0  0
    5.6667   -0.8167    0.0000 C   0  0  0  0  0  0  0  0  0  0  0  0
    6.4167   -0.9000    0.0000 C   0  0  0  0  0  0  0  0  0  0  0  0
  2  1  2  0  0  0  0
  3  1  1  0  0  0  0
  4  3  2  0  0  0  0
  5  2  1  0  0  0  0
  6  1  1  0  0  0  0
  7  6  1  0  0  0  0
  8  9  2  0  0  0  0
  9 10  1  0  0  0  0
 10 14  1  0  0  0  0
 11  8  1  0  0  0  0
 12  7  2  0  0  0  0
 13  9  1  0  0  0  0
 14  7  1  0  0  0  0
 15 17  1  0  0  0  0
 16  5  1  0  0  0  0
 17 13  2  0  0  0  0
 18  8  1  0  0  0  0
 19 15  1  0  0  0  0
 20 16  1  0  0  0  0
 21 20  1  0  0  0  0
  5  4  1  0  0  0  0
 15 11  2  0  0  0  0
M  END
>  <ID> (7568416)
7568416

>  <Supplier> (7568416)
ChemBridge

>  <clogP> (7568416)
2.174000000000000e+000

>  <RB> (7568416)
4

>  <tPSA> (7568416)
8.193000000000001e+001

>  <Hacc> (7568416)
5

>  <Hdon> (7568416)
1

>  <LogSw> (7568416)
-3.392000000000000e+000

>  <Group> (7568416)
3

>  <Core> (7568416)
290

$$$$
6724185
  -ISIS-  03310818242D

 30 33  0  0  0  0  0  0  0  0999 V2000
    9.7375    4.1917    0.0000 N   0  0  3  0  0  0  0  0  0  0  0  0
   10.8917    4.9292    0.0000 C   0  0  0  0  0  0  0  0  0  0  0  0
    8.4667    4.8542    0.0000 C   0  0  0  0  0  0  0  0  0  0  0  0
   10.8167    6.3542    0.0000 N   0  0  0  0  0  0  0  0  0  0  0  0
    8.4292    6.2542    0.0000 C   0  0  0  0  0  0  0  0  0  0  0  0
    9.6042    6.9917    0.0000 C   0  0  0  0  0  0  0  0  0  0  0  0
   12.1375    4.2542    0.0000 C   0  0  0  0  0  0  0  0  0  0  0  0
    7.6167    4.3042    0.0000 O   0  0  0  0  0  0  0  0  0  0  0  0
   12.1792    2.8958    0.0000 C   0  0  0  0  0  0  0  0  0  0  0  0
   13.3500    5.0042    0.0000 C   0  0  0  0  0  0  0  0  0  0  0  0
    9.8292    2.8583    0.0000 C   0  0  0  0  0  0  0  0  0  0  0  0
   14.6167    2.9125    0.0000 C   0  0  0  0  0  0  0  0  0  0  0  0
    7.1667    6.9167    0.0000 C   0  0  0  0  0  0  0  0  0  0  0  0
    3.0625    1.9125    0.0000 C   0  0  0  0  0  0  0  0  0  0  0  0
   14.6167    4.3292    0.0000 C   0  0  0  0  0  0  0  0  0  0  0  0
   13.4417    2.1958    0.0000 C   0  0  0  0  0  0  0  0  0  0  0  0
    0.8875    0.6458    0.0000 C   0  0  0  0  0  0  0  0  0  0  0  0
   15.6000    2.3458    0.0000 Br  0  0  0  0  0  0  0  0  0  0  0  0
    3.0625    0.6458    0.0000 C   0  0  0  0  0  0  0  0  0  0  0  0
    1.9667    2.5583    0.0000 C   0  0  0  0  0  0  0  0  0  0  0  0
    0.8875    1.9125    0.0000 C   0  0  0  0  0  0  0  0  0  0  0  0
    1.9667    0.0000    0.0000 C   0  0  0  0  0  0  0  0  0  0  0  0
    9.5292    8.4125    0.0000 C   0  0  0  0  0  0  0  0  0  0  0  0
    4.4250    2.6333    0.0000 O   0  0  0  0  0  0  0  0  0  0  0  0
    5.7417    1.8208    0.0000 C   0  0  0  0  0  0  0  0  0  0  0  0
    0.0000    0.3833    0.0000 C   0  0  0  0  0  0  0  0  0  0  0  0
    8.5292    1.9708    0.0000 C   0  0  0  0  0  0  0  0  0  0  0  0
    7.2542    2.6708    0.0000 C   0  0  0  0  0  0  0  0  0  0  0  0
    7.1042    8.3375    0.0000 C   0  0  0  0  0  0  0  0  0  0  0  0
    8.2625    9.0917    0.0000 C   0  0  0  0  0  0  0  0  0  0  0  0
  2  1  1  0  0  0  0
  3  1  1  0  0  0  0
  4  2  2  0  0  0  0
  5  3  1  0  0  0  0
  6  5  2  0  0  0  0
  7  2  1  0  0  0  0
  8  3  2  0  0  0  0
  9  7  1  0  0  0  0
 10  7  2  0  0  0  0
 11  1  1  0  0  0  0
 12 15  2  0  0  0  0
 13  5  1  0  0  0  0
 14 24  1  0  0  0  0
 15 10  1  0  0  0  0
 16  9  2  0  0  0  0
 17 21  1  0  0  0  0
 18 12  1  0  0  0  0
 19 14  2  0  0  0  0
 20 14  1  0  0  0  0
 21 20  2  0  0  0  0
 22 19  1  0  0  0  0
 23  6  1  0  0  0  0
 24 25  1  0  0  0  0
 25 28  1  0  0  0  0
 26 17  1  0  0  0  0
 27 11  1  0  0  0  0
 28 27  1  0  0  0  0
 29 13  2  0  0  0  0
 30 29  1  0  0  0  0
  6  4  1  0  0  0  0
 12 16  1  0  0  0  0
 30 23  2  0  0  0  0
 22 17  2  0  0  0  0
M  END
>  <ID> (6724185)
6724185

>  <Supplier> (6724185)
ChemBridge

>  <clogP> (6724185)
6.410000000000000e+000

>  <RB> (6724185)
7

>  <tPSA> (6724185)
4.412000000000000e+001

>  <Hacc> (6724185)
3

>  <Hdon> (6724185)
0

>  <LogSw> (6724185)
-8.052000000000003e+000

>  <Group> (6724185)
1

>  <Core> (6724185)
061

$$$$
6904884
  -ISIS-  03310818242D

 29 32  0  0  0  0  0  0  0  0999 V2000
    3.2542   -1.8417    0.0000 N   0  0  3  0  0  0  0  0  0  0  0  0
    1.8375   -1.8417    0.0000 C   0  0  0  0  0  0  0  0  0  0  0  0
    2.5417   -1.4250    0.0000 C   0  0  0  0  0  0  0  0  0  0  0  0
    3.2542   -2.6667    0.0000 C   0  0  0  0  0  0  0  0  0  0  0  0
    2.5417   -3.0750    0.0000 N   0  0  0  0  0  0  0  0  0  0  0  0
    1.8375   -2.6667    0.0000 C   0  0  0  0  0  0  0  0  0  0  0  0
    3.9750   -1.4292    0.0000 C   0  0  0  0  0  0  0  0  0  0  0  0
    1.1167   -1.4292    0.0000 C   0  0  0  0  0  0  0  0  0  0  0  0
   -0.8958   -2.1250    0.0000 C   0  0  0  0  0  0  0  0  0  0  0  0
   -0.3500   -1.5042    0.0000 O   0  0  0  0  0  0  0  0  0  0  0  0
    0.4042   -1.8417    0.0000 C   0  0  0  0  0  0  0  0  0  0  0  0
   -0.4833   -2.8417    0.0000 C   0  0  0  0  0  0  0  0  0  0  0  0
    0.3167   -2.6667    0.0000 C   0  0  0  0  0  0  0  0  0  0  0  0
    3.9750   -3.0792    0.0000 O   0  0  0  0  0  0  0  0  0  0  0  0
    2.5417   -0.6000    0.0000 O   0  0  0  0  0  0  0  0  0  0  0  0
    4.6875   -1.8500    0.0000 C   0  0  0  0  0  0  0  0  0  0  0  0
    3.9750   -0.6042    0.0000 C   0  0  0  0  0  0  0  0  0  0  0  0
    1.1167   -3.0792    0.0000 O   0  0  0  0  0  0  0  0  0  0  0  0
   -1.7208   -2.0417    0.0000 C   0  0  0  0  0  0  0  0  0  0  0  0
    4.6917   -0.2000    0.0000 C   0  0  0  0  0  0  0  0  0  0  0  0
    5.4042   -1.4417    0.0000 C   0  0  0  0  0  0  0  0  0  0  0  0
    5.4042   -0.6167    0.0000 C   0  0  0  0  0  0  0  0  0  0  0  0
   -2.2083   -2.7167    0.0000 C   0  0  0  0  0  0  0  0  0  0  0  0
   -2.0625   -1.2917    0.0000 C   0  0  0  0  0  0  0  0  0  0  0  0
    6.1125   -1.8542    0.0000 C   0  0  0  0  0  0  0  0  0  0  0  0
    4.7000    0.6250    0.0000 C   0  0  0  0  0  0  0  0  0  0  0  0
   -3.0250   -2.6292    0.0000 C   0  0  0  0  0  0  0  0  0  0  0  0
   -2.8833   -1.2042    0.0000 C   0  0  0  0  0  0  0  0  0  0  0  0
   -3.3625   -1.8750    0.0000 C   0  0  0  0  0  0  0  0  0  0  0  0
  2  3  1  0  0  0  0
  3  1  1  0  0  0  0
  4  1  1  0  0  0  0
  5  4  1  0  0  0  0
  6  5  1  0  0  0  0
  7  1  1  0  0  0  0
  8  2  2  0  0  0  0
  9 10  1  0  0  0  0
 10 11  1  0  0  0  0
 11  8  1  0  0  0  0
 12 13  1  0  0  0  0
 13 11  2  0  0  0  0
 14  4  2  0  0  0  0
 15  3  2  0  0  0  0
 16  7  2  0  0  0  0
 17  7  1  0  0  0  0
 18  6  2  0  0  0  0
 19  9  1  0  0  0  0
 20 17  2  0  0  0  0
 21 16  1  0  0  0  0
 22 20  1  0  0  0  0
 23 19  1  0  0  0  0
 24 19  2  0  0  0  0
 25 21  1  0  0  0  0
 26 20  1  0  0  0  0
 27 23  2  0  0  0  0
 28 24  1  0  0  0  0
 29 28  2  0  0  0  0
  6  2  1  0  0  0  0
 22 21  2  0  0  0  0
 12  9  2  0  0  0  0
 29 27  1  0  0  0  0
M  END
>  <ID> (6904884)
6904884

>  <Supplier> (6904884)
ChemBridge

>  <clogP> (6904884)
4.310000000000000e+000

>  <RB> (6904884)
3

>  <tPSA> (6904884)
7.962000000000001e+001

>  <Hacc> (6904884)
4

>  <Hdon> (6904884)
1

>  <LogSw> (6904884)
-5.698000000000000e+000

>  <Group> (6904884)
2

>  <Core> (6904884)
006

$$$$
6904885
  -ISIS-  03310818242D

 32 34  0  0  0  0  0  0  0  0999 V2000
    1.3375    0.4583    0.0000 C   0  0  0  0  0  0  0  0  0  0  0  0
    2.0042    1.1333    0.0000 N   0  0  3  0  0  0  0  0  0  0  0  0
    1.9167    0.5500    0.0000 C   0  0  3  0  0  0  0  0  0  0  0  0
    1.0667    0.9875    0.0000 C   0  0  0  0  0  0  0  0  0  0  0  0
    1.4875    1.4000    0.0000 C   0  0  0  0  0  0  0  0  0  0  0  0
    0.9792    0.0583    0.0000 C   0  0  0  0  0  0  0  0  0  0  0  0
    2.3292    0.1458    0.0000 C   0  0  0  0  0  0  0  0  0  0  0  0
    0.4792   -0.1042    0.0000 C   0  0  0  0  0  0  0  0  0  0  0  0
    0.2125   -0.6292    0.0000 C   0  0  0  0  0  0  0  0  0  0  0  0
    2.8917    0.2958    0.0000 C   0  0  0  0  0  0  0  0  0  0  0  0
    0.1625    0.3958    0.0000 C   0  0  0  0  0  0  0  0  0  0  0  0
    2.1792   -0.4167    0.0000 C   0  0  0  0  0  0  0  0  0  0  0  0
    1.3917    1.9833    0.0000 O   0  0  0  0  0  0  0  0  0  0  0  0
    1.2667   -0.3875    0.0000 O   0  0  0  0  0  0  0  0  0  0  0  0
   -0.3750   -0.6542    0.0000 C   0  0  0  0  0  0  0  0  0  0  0  0
    0.4875    1.0833    0.0000 O   0  0  0  0  0  0  0  0  0  0  0  0
    3.3042   -0.1125    0.0000 C   0  0  0  0  0  0  0  0  0  0  0  0
    2.5167    1.4000    0.0000 C   0  0  0  0  0  0  0  0  0  0  0  0
    2.5917   -0.8292    0.0000 C   0  0  0  0  0  0  0  0  0  0  0  0
   -0.7000   -0.1542    0.0000 C   0  0  0  0  0  0  0  0  0  0  0  0
   -0.4250    0.3708    0.0000 C   0  0  0  0  0  0  0  0  0  0  0  0
    3.1542   -0.6792    0.0000 C   0  0  0  0  0  0  0  0  0  0  0  0
    3.3042    0.7208    0.0000 O   0  0  0  0  0  0  0  0  0  0  0  0
    2.4375   -1.4042    0.0000 O   0  0  0  0  0  0  0  0  0  0  0  0
   -1.2875   -0.1875    0.0000 O   0  0  0  0  0  0  0  0  0  0  0  0
    0.5292   -1.1250    0.0000 C   0  0  0  0  0  0  0  0  0  0  0  0
    2.0625    2.2958    0.0000 O   0  0  0  0  0  0  0  0  0  0  0  0
    2.5500    1.9833    0.0000 C   0  0  0  0  0  0  0  0  0  0  0  0
    3.8792    0.5708    0.0000 C   0  0  0  0  0  0  0  0  0  0  0  0
   -1.5583   -0.7125    0.0000 C   0  0  0  0  0  0  0  0  0  0  0  0
    1.8667   -1.5542    0.0000 C   0  0  0  0  0  0  0  0  0  0  0  0
    2.0917    2.8750    0.0000 C   0  0  0  0  0  0  0  0  0  0  0  0
  2  3  1  0  0  0  0
  3  1  1  0  0  0  0
  4  1  2  0  0  0  0
  5  4  1  0  0  0  0
  6  1  1  0  0  0  0
  7  3  1  0  0  0  0
  8  6  1  0  0  0  0
  9  8  2  0  0  0  0
 10  7  1  0  0  0  0
 11  8  1  0  0  0  0
 12  7  2  0  0  0  0
 13  5  2  0  0  0  0
 14  6  2  0  0  0  0
 15  9  1  0  0  0  0
 16  4  1  0  0  0  0
 17 10  2  0  0  0  0
 18  2  1  0  0  0  0
 19 12  1  0  0  0  0
 20 21  1  0  0  0  0
 21 11  2  0  0  0  0
 22 19  2  0  0  0  0
 23 10  1  0  0  0  0
 24 19  1  0  0  0  0
 25 20  1  0  0  0  0
 26  9  1  0  0  0  0
 27 28  1  0  0  0  0
 28 18  1  0  0  0  0
 29 23  1  0  0  0  0
 30 25  1  0  0  0  0
 31 24  1  0  0  0  0
 32 27  1  0  0  0  0
  5  2  1  0  0  0  0
 20 15  2  0  0  0  0
 17 22  1  0  0  0  0
M  END
>  <ID> (6904885)
6904885

>  <Supplier> (6904885)
ChemBridge

>  <clogP> (6904885)
4.030000000000000e+000

>  <RB> (6904885)
5

>  <tPSA> (6904885)
9.453000000000003e+001

>  <Hacc> (6904885)
7

>  <Hdon> (6904885)
1

>  <LogSw> (6904885)
-5.859999999999999e+000

>  <Group> (6904885)
1

>  <Core> (6904885)
095

$$$$
7843588
  -ISIS-  03310818272D

 28 30  0  0  0  0  0  0  0  0999 V2000
    5.9125   -1.0667    0.0000 C   0  0  0  0  0  0  0  0  0  0  0  0
    7.7042    1.4458    0.0000 C   0  0  0  0  0  0  0  0  0  0  0  0
   10.6625    0.4750    0.0000 C   0  0  0  0  0  0  0  0  0  0  0  0
   10.6792   -2.5625    0.0000 C   0  0  0  0  0  0  0  0  0  0  0  0
    7.7292   -3.5625    0.0000 S   0  0  0  0  0  0  0  0  0  0  0  0
    2.7917   -1.1000    0.0000 N   0  0  0  0  0  0  0  0  0  0  0  0
    1.2375    1.5500    0.0000 C   0  0  0  0  0  0  0  0  0  0  0  0
    7.9542    4.5292    0.0000 C   0  0  0  0  0  0  0  0  0  0  0  0
   13.1917   -4.3542    0.0000 C   0  0  0  0  0  0  0  0  0  0  0  0
  -11.0917    6.8917    0.0000 C   0  0  0  0  0  0  0  0  0  0  0  0
  -12.5917    4.2167    0.0000 C   0  0  0  0  0  0  0  0  0  0  0  0
  -13.2292    9.2167    0.0000 O   0  0  0  0  0  0  0  0  0  0  0  0
    2.7917    4.2125    0.0000 S   0  0  0  0  0  0  0  0  0  0  0  0
   -1.8583    1.5500    0.0000 N   0  0  0  0  0  0  0  0  0  0  0  0
  -15.6667    4.8542    0.0000 O   0  0  0  0  0  0  0  0  0  0  0  0
  -16.0000    7.8792    0.0000 C   0  0  0  0  0  0  0  0  0  0  0  0
   -7.9917    6.8917    0.0000 C   0  0  0  0  0  0  0  0  0  0  0  0
    5.4250    6.3000    0.0000 O   0  0  0  0  0  0  0  0  0  0  0  0
   16.0000   -3.0750    0.0000 O   0  0  0  0  0  0  0  0  0  0  0  0
  -11.0417    1.5500    0.0000 C   0  0  0  0  0  0  0  0  0  0  0  0
   13.1542    2.2958    0.0000 C   0  0  0  0  0  0  0  0  0  0  0  0
   -6.4500    4.2167    0.0000 C   0  0  0  0  0  0  0  0  0  0  0  0
   10.7500    5.8542    0.0000 O   0  0  0  0  0  0  0  0  0  0  0  0
   -3.3583    4.2167    0.0000 C   0  0  0  0  0  0  0  0  0  0  0  0
   12.8917   -7.4250    0.0000 O   0  0  0  0  0  0  0  0  0  0  0  0
   -7.9917    1.5500    0.0000 C   0  0  0  0  0  0  0  0  0  0  0  0
   11.0042    8.9292    0.0000 C   0  0  0  0  0  0  0  0  0  0  0  0
   15.4042   -9.2167    0.0000 C   0  0  0  0  0  0  0  0  0  0  0  0
  2  1  2  0  0  0  0
  3  2  1  0  0  0  0
  4  5  1  0  0  0  0
  5  1  1  0  0  0  0
  6  1  1  0  0  0  0
  7  6  1  0  0  0  0
  8  2  1  0  0  0  0
  9  4  1  0  0  0  0
 10 17  1  0  0  0  0
 11 20  1  0  0  0  0
 12 10  1  0  0  0  0
 13  7  2  0  0  0  0
 14  7  1  0  0  0  0
 15 11  1  0  0  0  0
 16 12  1  0  0  0  0
 17 22  2  0  0  0  0
 18  8  2  0  0  0  0
 19  9  2  0  0  0  0
 20 26  2  0  0  0  0
 21  3  1  0  0  0  0
 22 24  1  0  0  0  0
 23  8  1  0  0  0  0
 24 14  1  0  0  0  0
 25  9  1  0  0  0  0
 26 22  1  0  0  0  0
 27 23  1  0  0  0  0
 28 25  1  0  0  0  0
  3  4  2  0  0  0  0
 10 11  2  0  0  0  0
 15 16  1  0  0  0  0
M  END
>  <ID> (7843588)
7843588

>  <Supplier> (7843588)
ChemBridge

>  <clogP> (7843588)
3.100000000000000e+000

>  <RB> (7843588)
5

>  <tPSA> (7843588)
9.512000000000002e+001

>  <Hacc> (7843588)
6

>  <Hdon> (7843588)
2

>  <LogSw> (7843588)
-3.919000000000000e+000

>  <Group> (7843588)
1

>  <Core> (7843588)
269

$$$$
5769748
  -ISIS-  03310818222D

 27 30  0  0  0  0  0  0  0  0999 V2000
    4.2875   -1.4667    0.0000 C   0  0  0  0  0  0  0  0  0  0  0  0
    5.0000   -1.8792    0.0000 C   0  0  0  0  0  0  0  0  0  0  0  0
    5.7167   -1.4667    0.0000 C   0  0  0  0  0  0  0  0  0  0  0  0
    5.7167   -0.6500    0.0000 C   0  0  0  0  0  0  0  0  0  0  0  0
    4.2875   -0.6500    0.0000 C   0  0  0  0  0  0  0  0  0  0  0  0
    5.0000   -0.2292    0.0000 O   0  0  0  0  0  0  0  0  0  0  0  0
    3.5667   -1.8792    0.0000 C   0  0  0  0  0  0  0  0  0  0  0  0
    3.5667   -0.2292    0.0000 C   0  0  0  0  0  0  0  0  0  0  0  0
    2.8542   -1.4667    0.0000 C   0  0  0  0  0  0  0  0  0  0  0  0
    2.8542   -0.6500    0.0000 C   0  0  0  0  0  0  0  0  0  0  0  0
    5.0000   -2.7042    0.0000 O   0  0  0  0  0  0  0  0  0  0  0  0
    6.4375   -0.2292    0.0000 C   0  0  0  0  0  0  0  0  0  0  0  0
    2.1292   -0.2292    0.0000 O   0  0  0  0  0  0  0  0  0  0  0  0
    3.5667   -2.7042    0.0000 O   0  0  0  0  0  0  0  0  0  0  0  0
    0.7042   -0.2375    0.0000 C   0  0  0  0  0  0  0  0  0  0  0  0
    1.4167   -0.6500    0.0000 C   0  0  0  0  0  0  0  0  0  0  0  0
   -0.7208    0.5708    0.0000 C   0  0  0  0  0  0  0  0  0  0  0  0
    0.7000    0.5833    0.0000 C   0  0  0  0  0  0  0  0  0  0  0  0
    0.0000   -0.6542    0.0000 C   0  0  0  0  0  0  0  0  0  0  0  0
   -0.7208   -0.2500    0.0000 C   0  0  0  0  0  0  0  0  0  0  0  0
   -0.0125    0.9958    0.0000 C   0  0  0  0  0  0  0  0  0  0  0  0
    7.1500   -0.6500    0.0000 C   0  0  0  0  0  0  0  0  0  0  0  0
    6.4375    0.5958    0.0000 C   0  0  0  0  0  0  0  0  0  0  0  0
   -1.4458    0.9833    0.0000 C   0  0  0  0  0  0  0  0  0  0  0  0
    7.8542   -0.2292    0.0000 C   0  0  0  0  0  0  0  0  0  0  0  0
    7.1500    1.0000    0.0000 C   0  0  0  0  0  0  0  0  0  0  0  0
    7.8542    0.5958    0.0000 C   0  0  0  0  0  0  0  0  0  0  0  0
  2  1  1  0  0  0  0
  3  2  1  0  0  0  0
  4  6  1  0  0  0  0
  5  1  1  0  0  0  0
  6  5  1  0  0  0  0
  7  1  2  0  0  0  0
  8  5  2  0  0  0  0
  9  7  1  0  0  0  0
 10  9  2  0  0  0  0
 11  2  2  0  0  0  0
 12  4  1  0  0  0  0
 13 10  1  0  0  0  0
 14  7  1  0  0  0  0
 15 16  1  0  0  0  0
 16 13  1  0  0  0  0
 17 20  1  0  0  0  0
 18 15  2  0  0  0  0
 19 15  1  0  0  0  0
 20 19  2  0  0  0  0
 21 18  1  0  0  0  0
 22 12  2  0  0  0  0
 23 12  1  0  0  0  0
 24 17  1  0  0  0  0
 25 22  1  0  0  0  0
 26 23  2  0  0  0  0
 27 26  1  0  0  0  0
 10  8  1  0  0  0  0
  4  3  2  0  0  0  0
 27 25  2  0  0  0  0
 17 21  2  0  0  0  0
M  END
>  <ID> (5769748)
5769748

>  <Supplier> (5769748)
ChemBridge

>  <clogP> (5769748)
5.500000000000000e+000

>  <RB> (5769748)
4

>  <tPSA> (5769748)
5.967000000000000e+001

>  <Hacc> (5769748)
4

>  <Hdon> (5769748)
1

>  <LogSw> (5769748)
-5.930000000000002e+000

>  <Group> (5769748)
3

>  <Core> (5769748)
083

$$$$
5233271
  -ISIS-  03310818212D

 41 45  0  0  0  0  0  0  0  0999 V2000
   -0.9833   -0.0292    0.0000 N   0  0  3  0  0  0  0  0  0  0  0  0
   -0.9833    0.6208    0.0000 C   0  0  0  0  0  0  0  0  0  0  0  0
   -1.5625   -0.3667    0.0000 C   0  0  0  0  0  0  0  0  0  0  0  0
   -2.1458    0.6208    0.0000 C   0  0  0  0  0  0  0  0  0  0  0  0
   -2.1458   -0.0292    0.0000 C   0  0  0  0  0  0  0  0  0  0  0  0
   -0.3458   -0.4000    0.0000 C   0  0  0  0  0  0  0  0  0  0  0  0
   -3.9583    0.9958    0.0000 C   0  0  0  0  0  0  0  0  0  0  0  0
    1.5292   -0.0292    0.0000 C   0  0  0  0  0  0  0  0  0  0  0  0
   -2.7208    0.9500    0.0000 C   0  0  0  0  0  0  0  0  0  0  0  0
   -3.3000    0.6208    0.0000 C   0  0  0  0  0  0  0  0  0  0  0  0
    2.1542   -0.3792    0.0000 N   0  0  0  0  0  0  0  0  0  0  0  0
   -4.5958    0.6208    0.0000 N   0  0  0  0  0  0  0  0  0  0  0  0
    0.2792   -0.0292    0.0000 C   0  0  0  0  0  0  0  0  0  0  0  0
    0.9042   -0.3875    0.0000 C   0  0  0  0  0  0  0  0  0  0  0  0
   -2.7208   -0.3667    0.0000 C   0  0  0  0  0  0  0  0  0  0  0  0
   -0.3708    1.0000    0.0000 O   0  0  0  0  0  0  0  0  0  0  0  0
   -1.5333   -1.1000    0.0000 O   0  0  0  0  0  0  0  0  0  0  0  0
   -4.5958   -2.3375    0.0000 C   0  0  0  0  0  0  0  0  0  0  0  0
    4.6292    1.0958    0.0000 C   0  0  0  0  0  0  0  0  0  0  0  0
    4.0042    0.7333    0.0000 C   0  0  0  0  0  0  0  0  0  0  0  0
   -4.5958   -1.6167    0.0000 C   0  0  0  0  0  0  0  0  0  0  0  0
    1.5167    0.6958    0.0000 O   0  0  0  0  0  0  0  0  0  0  0  0
   -3.9583    1.7333    0.0000 O   0  0  0  0  0  0  0  0  0  0  0  0
   -3.3000   -0.0292    0.0000 C   0  0  0  0  0  0  0  0  0  0  0  0
   -5.2083   -2.7292    0.0000 O   0  0  0  0  0  0  0  0  0  0  0  0
    5.2875    0.7833    0.0000 O   0  0  0  0  0  0  0  0  0  0  0  0
    2.7542    0.0125    0.0000 C   0  0  0  0  0  0  0  0  0  0  0  0
   -4.5958   -0.1167    0.0000 C   0  0  0  0  0  0  0  0  0  0  0  0
    4.0292    0.0125    0.0000 C   0  0  0  0  0  0  0  0  0  0  0  0
   -5.2333   -1.2375    0.0000 C   0  0  0  0  0  0  0  0  0  0  0  0
    3.3875    1.1000    0.0000 C   0  0  0  0  0  0  0  0  0  0  0  0
   -3.9458   -1.2375    0.0000 C   0  0  0  0  0  0  0  0  0  0  0  0
    3.3875   -0.3500    0.0000 C   0  0  0  0  0  0  0  0  0  0  0  0
   -5.2458   -0.4792    0.0000 C   0  0  0  0  0  0  0  0  0  0  0  0
    2.7542    0.7208    0.0000 C   0  0  0  0  0  0  0  0  0  0  0  0
   -3.9458   -0.5000    0.0000 C   0  0  0  0  0  0  0  0  0  0  0  0
   -0.3458   -1.1167    0.0000 C   0  0  0  0  0  0  0  0  0  0  0  0
    0.9167   -1.1042    0.0000 C   0  0  0  0  0  0  0  0  0  0  0  0
    0.2875   -1.5000    0.0000 C   0  0  0  0  0  0  0  0  0  0  0  0
   -4.0000   -2.7375    0.0000 C   0  0  0  0  0  0  0  0  0  0  0  0
    4.6542    1.8125    0.0000 C   0  0  0  0  0  0  0  0  0  0  0  0
  2  1  1  0  0  0  0
  3  1  1  0  0  0  0
  4  2  1  0  0  0  0
  5  3  1  0  0  0  0
  6  1  1  0  0  0  0
  7 10  1  0  0  0  0
  8 14  1  0  0  0  0
  9  4  1  0  0  0  0
 10  9  2  0  0  0  0
 11  8  1  0  0  0  0
 12  7  1  0  0  0  0
 13  6  2  0  0  0  0
 14 13  1  0  0  0  0
 15  5  1  0  0  0  0
 16  2  2  0  0  0  0
 17  3  2  0  0  0  0
 18 21  1  0  0  0  0
 19 20  1  0  0  0  0
 20 31  2  0  0  0  0
 21 32  2  0  0  0  0
 22  8  2  0  0  0  0
 23  7  2  0  0  0  0
 24 15  2  0  0  0  0
 25 18  2  0  0  0  0
 26 19  2  0  0  0  0
 27 11  1  0  0  0  0
 28 12  1  0  0  0  0
 29 33  2  0  0  0  0
 30 34  2  0  0  0  0
 31 35  1  0  0  0  0
 32 36  1  0  0  0  0
 33 27  1  0  0  0  0
 34 28  1  0  0  0  0
 35 27  2  0  0  0  0
 36 28  2  0  0  0  0
 37  6  1  0  0  0  0
 38 39  1  0  0  0  0
 39 37  2  0  0  0  0
 40 18  1  0  0  0  0
 41 19  1  0  0  0  0
  5  4  2  0  0  0  0
 38 14  2  0  0  0  0
 24 10  1  0  0  0  0
 20 29  1  0  0  0  0
 30 21  1  0  0  0  0
M  END
>  <ID> (5233271)
5233271

>  <Supplier> (5233271)
ChemBridge

>  <clogP> (5233271)
3.680000000000000e+000

>  <RB> (5233271)
7

>  <tPSA> (5233271)
1.297200000000000e+002

>  <Hacc> (5233271)
6

>  <Hdon> (5233271)
2

>  <LogSw> (5233271)
-6.318000000000000e+000

>  <Group> (5233271)
2

>  <Core> (5233271)
115

$$$$
7815677
  -ISIS-  03310818272D

 33 35  0  0  0  0  0  0  0  0999 V2000
    2.9250   -3.9917    0.0000 S   0  0  3  0  0  0  0  0  0  0  0  0
    3.6417   -3.5792    0.0000 C   0  0  0  0  0  0  0  0  0  0  0  0
    8.6417   -2.3167    0.0000 C   0  0  0  0  0  0  0  0  0  0  0  0
    2.2042   -4.4000    0.0000 N   0  0  0  0  0  0  0  0  0  0  0  0
    3.6417   -2.7500    0.0000 C   0  0  0  0  0  0  0  0  0  0  0  0
    7.9292   -2.7375    0.0000 N   0  0  0  0  0  0  0  0  0  0  0  0
    4.3542   -2.3375    0.0000 C   0  0  0  0  0  0  0  0  0  0  0  0
    7.2125   -2.3292    0.0000 C   0  0  0  0  0  0  0  0  0  0  0  0
    3.3292   -4.7042    0.0000 O   0  0  0  0  0  0  0  0  0  0  0  0
    2.5167   -3.2750    0.0000 O   0  0  0  0  0  0  0  0  0  0  0  0
    5.0667   -2.7500    0.0000 C   0  0  0  0  0  0  0  0  0  0  0  0
    5.7792   -2.3292    0.0000 O   0  0  0  0  0  0  0  0  0  0  0  0
    9.3542   -2.7292    0.0000 C   0  0  0  0  0  0  0  0  0  0  0  0
    8.6292   -1.4917    0.0000 C   0  0  0  0  0  0  0  0  0  0  0  0
    4.3542   -3.9917    0.0000 C   0  0  0  0  0  0  0  0  0  0  0  0
    7.2042   -1.5042    0.0000 O   0  0  0  0  0  0  0  0  0  0  0  0
    5.0667   -3.5792    0.0000 C   0  0  0  0  0  0  0  0  0  0  0  0
    6.5000   -2.7417    0.0000 C   0  0  0  0  0  0  0  0  0  0  0  0
    1.4917   -3.9792    0.0000 C   0  0  0  0  0  0  0  0  0  0  0  0
    4.3542   -1.5125    0.0000 Cl  0  0  0  0  0  0  0  0  0  0  0  0
    0.7792   -4.3792    0.0000 C   0  0  0  0  0  0  0  0  0  0  0  0
   10.0667   -1.4875    0.0000 C   0  0  0  0  0  0  0  0  0  0  0  0
    9.3417   -1.0792    0.0000 C   0  0  0  0  0  0  0  0  0  0  0  0
   10.0750   -2.3167    0.0000 C   0  0  0  0  0  0  0  0  0  0  0  0
    9.3625   -3.5542    0.0000 C   0  0  0  0  0  0  0  0  0  0  0  0
    7.9167   -1.0917    0.0000 C   0  0  0  0  0  0  0  0  0  0  0  0
    0.7750   -5.2042    0.0000 C   0  0  0  0  0  0  0  0  0  0  0  0
    0.0667   -3.9625    0.0000 C   0  0  0  0  0  0  0  0  0  0  0  0
    7.9125   -0.2667    0.0000 C   0  0  0  0  0  0  0  0  0  0  0  0
   10.0750   -3.9667    0.0000 C   0  0  0  0  0  0  0  0  0  0  0  0
   -0.6458   -4.3667    0.0000 C   0  0  0  0  0  0  0  0  0  0  0  0
    0.0542   -5.6125    0.0000 C   0  0  0  0  0  0  0  0  0  0  0  0
   -0.6583   -5.1917    0.0000 C   0  0  0  0  0  0  0  0  0  0  0  0
  2  1  1  0  0  0  0
  3  6  1  0  0  0  0
  4  1  1  0  0  0  0
  5  2  2  0  0  0  0
  6  8  1  0  0  0  0
  7  5  1  0  0  0  0
  8 18  1  0  0  0  0
  9  1  2  0  0  0  0
 10  1  2  0  0  0  0
 11 17  1  0  0  0  0
 12 11  1  0  0  0  0
 13  3  2  0  0  0  0
 14  3  1  0  0  0  0
 15  2  1  0  0  0  0
 16  8  2  0  0  0  0
 17 15  2  0  0  0  0
 18 12  1  0  0  0  0
 19  4  1  0  0  0  0
 20  7  1  0  0  0  0
 21 19  1  0  0  0  0
 22 23  1  0  0  0  0
 23 14  2  0  0  0  0
 24 13  1  0  0  0  0
 25 13  1  0  0  0  0
 26 14  1  0  0  0  0
 27 21  1  0  0  0  0
 28 21  2  0  0  0  0
 29 26  1  0  0  0  0
 30 25  1  0  0  0  0
 31 28  1  0  0  0  0
 32 27  2  0  0  0  0
 33 31  2  0  0  0  0
 11  7  2  0  0  0  0
 32 33  1  0  0  0  0
 24 22  2  0  0  0  0
M  END
>  <ID> (7815677)
7815677

>  <Supplier> (7815677)
ChemBridge

>  <clogP> (7815677)
4.580000000000000e+000

>  <RB> (7815677)
7

>  <tPSA> (7815677)
8.450000000000004e+001

>  <Hacc> (7815677)
5

>  <Hdon> (7815677)
2

>  <LogSw> (7815677)
-6.661000000000000e+000

>  <Group> (7815677)
1

>  <Core> (7815677)
315

$$$$
7843587
  -ISIS-  03310818272D

 23 25  0  0  0  0  0  0  0  0999 V2000
   12.4167    1.5500    0.0000 N   0  3  0  0  0  0  0  0  0  0  0  0
   -0.0458   -1.5292    0.0000 C   0  0  0  0  0  0  0  0  0  0  0  0
   -3.6083   -1.5292    0.0000 N   0  0  0  0  0  0  0  0  0  0  0  0
   10.6667   -1.5625    0.0000 C   0  0  0  0  0  0  0  0  0  0  0  0
   -5.3125    1.5333    0.0000 C   0  0  3  0  0  0  0  0  0  0  0  0
   -8.8792    1.5333    0.0000 C   0  0  0  0  0  0  0  0  0  0  0  0
    1.7167   -4.6000    0.0000 N   0  0  0  0  0  0  0  0  0  0  0  0
    7.1375   -1.5625    0.0000 C   0  0  0  0  0  0  0  0  0  0  0  0
   16.0000    1.5208    0.0000 O   0  5  0  0  0  0  0  0  0  0  0  0
    1.7167    1.5208    0.0000 S   0  0  0  0  0  0  0  0  0  0  0  0
   10.6292    4.6250    0.0000 O   0  0  0  0  0  0  0  0  0  0  0  0
    5.3042   -4.6417    0.0000 C   0  0  0  0  0  0  0  0  0  0  0  0
  -10.6292    4.6292    0.0000 C   0  0  0  0  0  0  0  0  0  0  0  0
   -3.5125    4.6042    0.0000 C   0  0  0  0  0  0  0  0  0  0  0  0
   12.4375   -4.6250    0.0000 C   0  0  0  0  0  0  0  0  0  0  0  0
   -5.3000    7.7125    0.0000 C   0  0  0  0  0  0  0  0  0  0  0  0
  -10.6542   -1.5667    0.0000 C   0  0  0  0  0  0  0  0  0  0  0  0
   10.6667   -7.7042    0.0000 C   0  0  0  0  0  0  0  0  0  0  0  0
   -8.8375    7.7292    0.0000 C   0  0  0  0  0  0  0  0  0  0  0  0
    7.0917   -7.7292    0.0000 C   0  0  0  0  0  0  0  0  0  0  0  0
  -14.1917    4.6667    0.0000 C   0  0  0  0  0  0  0  0  0  0  0  0
  -14.2250   -1.5167    0.0000 C   0  0  0  0  0  0  0  0  0  0  0  0
  -16.0000    1.6083    0.0000 C   0  0  0  0  0  0  0  0  0  0  0  0
  2  7  1  0  0  0  0
  3  2  1  0  0  0  0
  4  1  1  0  0  0  0
  5  3  1  0  0  0  0
  6  5  1  0  0  0  0
  7 12  1  0  0  0  0
  8  4  1  0  0  0  0
  9  1  1  0  0  0  0
 10  2  2  0  0  0  0
 11  1  2  0  0  0  0
 12  8  2  0  0  0  0
 13  6  2  0  0  0  0
 14  5  1  0  0  0  0
 15  4  2  0  0  0  0
 16 14  1  0  0  0  0
 17  6  1  0  0  0  0
 18 15  1  0  0  0  0
 19 16  1  0  0  0  0
 20 18  2  0  0  0  0
 21 13  1  0  0  0  0
 22 17  2  0  0  0  0
 23 22  1  0  0  0  0
 12 20  1  0  0  0  0
 13 19  1  0  0  0  0
 23 21  2  0  0  0  0
M  CHG  2   1   1   9  -1
M  END
>  <ID> (7843587)
7843587

>  <Supplier> (7843587)
ChemBridge

>  <clogP> (7843587)
4.010000000000000e+000

>  <RB> (7843587)
2

>  <tPSA> (7843587)
6.720000000000000e+001

>  <Hacc> (7843587)
2

>  <Hdon> (7843587)
2

>  <LogSw> (7843587)
-4.393999999999998e+000

>  <Group> (7843587)
1

$$$$
7843581
  -ISIS-  03310818272D

 24 25  0  0  0  0  0  0  0  0999 V2000
    0.2792   -4.4792    0.0000 S   0  0  3  0  0  0  0  0  0  0  0  0
    1.7125   -2.8292    0.0000 C   0  0  0  0  0  0  0  0  0  0  0  0
    0.9917   -4.0667    0.0000 N   0  0  3  0  0  0  0  0  0  0  0  0
    0.9917   -3.2417    0.0000 C   0  0  0  0  0  0  0  0  0  0  0  0
    2.4292   -3.2417    0.0000 C   0  0  0  0  0  0  0  0  0  0  0  0
    3.1417   -2.8250    0.0000 N   0  0  0  0  0  0  0  0  0  0  0  0
    0.2792   -5.3042    0.0000 O   0  0  0  0  0  0  0  0  0  0  0  0
    0.9917   -4.8917    0.0000 O   0  0  0  0  0  0  0  0  0  0  0  0
    2.4292   -4.0667    0.0000 O   0  0  0  0  0  0  0  0  0  0  0  0
   -0.4333   -4.0667    0.0000 C   0  0  0  0  0  0  0  0  0  0  0  0
    3.8542   -3.2292    0.0000 C   0  0  0  0  0  0  0  0  0  0  0  0
    4.5667   -2.8167    0.0000 C   0  0  0  0  0  0  0  0  0  0  0  0
    5.9875   -1.9792    0.0000 C   0  0  0  0  0  0  0  0  0  0  0  0
    1.7125   -2.0000    0.0000 C   0  0  0  0  0  0  0  0  0  0  0  0
    1.7125   -4.4792    0.0000 C   0  0  0  0  0  0  0  0  0  0  0  0
    5.2792   -3.2292    0.0000 C   0  0  0  0  0  0  0  0  0  0  0  0
    4.5542   -1.9917    0.0000 C   0  0  0  0  0  0  0  0  0  0  0  0
    5.2667   -1.5792    0.0000 C   0  0  0  0  0  0  0  0  0  0  0  0
    5.9917   -2.8125    0.0000 C   0  0  0  0  0  0  0  0  0  0  0  0
    0.2792   -2.8292    0.0000 C   0  0  0  0  0  0  0  0  0  0  0  0
    6.6917   -1.5625    0.0000 O   0  0  0  0  0  0  0  0  0  0  0  0
    7.4167   -1.9667    0.0000 C   0  0  0  0  0  0  0  0  0  0  0  0
    0.9917   -1.5875    0.0000 C   0  0  0  0  0  0  0  0  0  0  0  0
    0.2792   -2.0000    0.0000 C   0  0  0  0  0  0  0  0  0  0  0  0
  2  4  2  0  0  0  0
  3  1  1  0  0  0  0
  4  3  1  0  0  0  0
  5  2  1  0  0  0  0
  6  5  1  0  0  0  0
  7  1  2  0  0  0  0
  8  1  2  0  0  0  0
  9  5  2  0  0  0  0
 10  1  1  0  0  0  0
 11  6  1  0  0  0  0
 12 11  1  0  0  0  0
 13 18  2  0  0  0  0
 14  2  1  0  0  0  0
 15  3  1  0  0  0  0
 16 12  1  0  0  0  0
 17 12  2  0  0  0  0
 18 17  1  0  0  0  0
 19 16  2  0  0  0  0
 20  4  1  0  0  0  0
 21 13  1  0  0  0  0
 22 21  1  0  0  0  0
 23 24  1  0  0  0  0
 24 20  2  0  0  0  0
 23 14  2  0  0  0  0
 13 19  1  0  0  0  0
M  END
>  <ID> (7843581)
7843581

>  <Supplier> (7843581)
ChemBridge

>  <clogP> (7843581)
4.600000000000000e-001

>  <RB> (7843581)
4

>  <tPSA> (7843581)
7.570999999999999e+001

>  <Hacc> (7843581)
4

>  <Hdon> (7843581)
1

>  <LogSw> (7843581)
-2.133000000000000e+000

>  <Group> (7843581)
2

>  <Core> (7843581)
142

$$$$
7843582
  -ISIS-  03310818272D

 35 38  0  0  0  0  0  0  0  0999 V2000
    6.6875   -6.2917    0.0000 C   0  0  0  0  0  0  0  0  0  0  0  0
    6.6792   -5.4917    0.0000 C   0  0  0  0  0  0  0  0  0  0  0  0
    5.9750   -6.7042    0.0000 C   0  0  0  0  0  0  0  0  0  0  0  0
    5.9667   -5.0792    0.0000 O   0  0  0  0  0  0  0  0  0  0  0  0
    5.2667   -6.3042    0.0000 C   0  0  0  0  0  0  0  0  0  0  0  0
    5.2542   -5.4917    0.0000 C   0  0  0  0  0  0  0  0  0  0  0  0
    7.3917   -5.0792    0.0000 C   0  0  3  0  0  0  0  0  0  0  0  0
    7.4000   -6.7000    0.0000 C   0  0  0  0  0  0  0  0  0  0  0  0
    2.4417   -4.7167    0.0000 C   0  0  0  0  0  0  0  0  0  0  0  0
    4.5542   -5.0917    0.0000 C   0  0  0  0  0  0  0  0  0  0  0  0
    3.1417   -5.1042    0.0000 O   0  0  0  0  0  0  0  0  0  0  0  0
    4.5542   -6.7042    0.0000 C   0  0  0  0  0  0  0  0  0  0  0  0
    5.9750   -7.5042    0.0000 O   0  0  0  0  0  0  0  0  0  0  0  0
    1.7542   -5.1292    0.0000 C   0  0  0  0  0  0  0  0  0  0  0  0
    3.8417   -5.4917    0.0000 C   0  0  0  0  0  0  0  0  0  0  0  0
    2.4292   -3.9167    0.0000 O   0  0  0  0  0  0  0  0  0  0  0  0
    7.4000   -7.5292    0.0000 C   0  0  0  0  0  0  0  0  0  0  0  0
    8.0417   -4.7000    0.0000 F   0  0  0  0  0  0  0  0  0  0  0  0
    8.2042   -5.3792    0.0000 F   0  0  0  0  0  0  0  0  0  0  0  0
    7.5292   -4.2250    0.0000 F   0  0  0  0  0  0  0  0  0  0  0  0
    1.7667   -5.9250    0.0000 C   0  0  0  0  0  0  0  0  0  0  0  0
    1.0542   -4.7417    0.0000 C   0  0  0  0  0  0  0  0  0  0  0  0
    3.8417   -6.3042    0.0000 C   0  0  0  0  0  0  0  0  0  0  0  0
    0.3792   -5.9542    0.0000 C   0  0  0  0  0  0  0  0  0  0  0  0
    0.3667   -5.1542    0.0000 C   0  0  0  0  0  0  0  0  0  0  0  0
    1.0875   -6.3417    0.0000 C   0  0  0  0  0  0  0  0  0  0  0  0
    6.6875   -7.9417    0.0000 O   0  0  0  0  0  0  0  0  0  0  0  0
    8.1042   -6.2875    0.0000 C   0  0  0  0  0  0  0  0  0  0  0  0
   -0.3000   -6.3667    0.0000 O   0  0  0  0  0  0  0  0  0  0  0  0
    8.1167   -7.9375    0.0000 C   0  0  0  0  0  0  0  0  0  0  0  0
   -1.0000   -5.9792    0.0000 C   0  0  0  0  0  0  0  0  0  0  0  0
    6.6917   -8.7667    0.0000 C   0  0  0  0  0  0  0  0  0  0  0  0
    8.8250   -6.6917    0.0000 C   0  0  0  0  0  0  0  0  0  0  0  0
   -1.6875   -6.3917    0.0000 C   0  0  0  0  0  0  0  0  0  0  0  0
    8.8292   -7.5250    0.0000 C   0  0  0  0  0  0  0  0  0  0  0  0
  2  1  2  0  0  0  0
  3  1  1  0  0  0  0
  4  2  1  0  0  0  0
  5  3  1  0  0  0  0
  6  5  1  0  0  0  0
  7  2  1  0  0  0  0
  8  1  1  0  0  0  0
  9 11  1  0  0  0  0
 10  6  2  0  0  0  0
 11 15  1  0  0  0  0
 12  5  2  0  0  0  0
 13  3  2  0  0  0  0
 14  9  1  0  0  0  0
 15 23  2  0  0  0  0
 16  9  2  0  0  0  0
 17  8  2  0  0  0  0
 18  7  1  0  0  0  0
 19  7  1  0  0  0  0
 20  7  1  0  0  0  0
 21 14  1  0  0  0  0
 22 14  2  0  0  0  0
 23 12  1  0  0  0  0
 24 25  2  0  0  0  0
 25 22  1  0  0  0  0
 26 21  2  0  0  0  0
 27 17  1  0  0  0  0
 28  8  1  0  0  0  0
 29 24  1  0  0  0  0
 30 17  1  0  0  0  0
 31 29  1  0  0  0  0
 32 27  1  0  0  0  0
 33 28  2  0  0  0  0
 34 31  1  0  0  0  0
 35 33  1  0  0  0  0
  4  6  1  0  0  0  0
 35 30  2  0  0  0  0
 10 15  1  0  0  0  0
 24 26  1  0  0  0  0
M  END
>  <ID> (7843582)
7843582

>  <Supplier> (7843582)
ChemBridge

>  <clogP> (7843582)
5.670000000000000e+000

>  <RB> (7843582)
4

>  <tPSA> (7843582)
7.497000000000000e+001

>  <Hacc> (7843582)
6

>  <Hdon> (7843582)
0

>  <LogSw> (7843582)
-7.573000000000000e+000

>  <Group> (7843582)
1

>  <Core> (7843582)
080

$$$$
5377481
  -ISIS-  03310818222D

 18 20  0  0  0  0  0  0  0  0999 V2000
   -1.8625    1.0208    0.0000 N   0  0  0  0  0  0  0  0  0  0  0  0
   -2.1500    0.0833    0.0000 C   0  0  0  0  0  0  0  0  0  0  0  0
   -0.5708    0.1333    0.0000 C   0  0  0  0  0  0  0  0  0  0  0  0
   -0.9125    1.0208    0.0000 C   0  0  0  0  0  0  0  0  0  0  0  0
   -1.3500   -0.4667    0.0000 S   0  0  0  0  0  0  0  0  0  0  0  0
    0.3542   -0.1042    0.0000 C   0  0  0  0  0  0  0  0  0  0  0  0
    1.0292    0.5708    0.0000 C   0  0  0  0  0  0  0  0  0  0  0  0
    2.6375    1.0333    0.0000 C   0  0  0  0  0  0  0  0  0  0  0  0
    2.3792    1.9708    0.0000 C   0  0  0  0  0  0  0  0  0  0  0  0
    1.4375    2.1958    0.0000 C   0  0  0  0  0  0  0  0  0  0  0  0
    1.9667    0.3500    0.0000 C   0  0  0  0  0  0  0  0  0  0  0  0
    0.7792    1.4958    0.0000 C   0  0  0  0  0  0  0  0  0  0  0  0
   -3.0500   -0.2375    0.0000 S   0  0  0  0  0  0  0  0  0  0  0  0
    2.8500    2.8125    0.0000 O   0  0  0  0  0  0  0  0  0  0  0  0
    1.3042    3.1708    0.0000 O   0  0  0  0  0  0  0  0  0  0  0  0
   -0.3708    1.8125    0.0000 O   0  0  0  0  0  0  0  0  0  0  0  0
    2.1792    3.5333    0.0000 C   0  0  0  0  0  0  0  0  0  0  0  0
    2.2375   -0.5542    0.0000 Cl  0  0  0  0  0  0  0  0  0  0  0  0
  2  1  1  0  0  0  0
  3  4  1  0  0  0  0
  4  1  1  0  0  0  0
  5  2  1  0  0  0  0
  6  3  2  0  0  0  0
  7  6  1  0  0  0  0
  8 11  1  0  0  0  0
  9 10  1  0  0  0  0
 10 12  2  0  0  0  0
 11  7  2  0  0  0  0
 12  7  1  0  0  0  0
 13  2  2  0  0  0  0
 14  9  1  0  0  0  0
 15 10  1  0  0  0  0
 16  4  2  0  0  0  0
 17 15  1  0  0  0  0
 18 11  1  0  0  0  0
  5  3  1  0  0  0  0
  9  8  2  0  0  0  0
 17 14  1  0  0  0  0
M  END
>  <ID> (5377481)
5377481

>  <Supplier> (5377481)
ChemBridge

>  <clogP> (5377481)
2.140000000000000e+000

>  <RB> (5377481)
1

>  <tPSA> (5377481)
4.756000000000000e+001

>  <Hacc> (5377481)
3

>  <Hdon> (5377481)
1

>  <LogSw> (5377481)
-3.214000000000000e+000

>  <Group> (5377481)
3

>  <Core> (5377481)
001

$$$$
9008458
  -ISIS-  03310818282D

 28 30  0  0  0  0  0  0  0  0999 V2000
    1.7667    1.0583    0.0000 N   0  3  0  0  0  0  0  0  0  0  0  0
    1.3917    1.7000    0.0000 C   0  0  0  0  0  0  0  0  0  0  0  0
    1.7667    2.3500    0.0000 C   0  0  0  0  0  0  0  0  0  0  0  0
    4.7667    3.6500    0.0000 C   0  0  0  0  0  0  0  0  0  0  0  0
    5.1417    3.0000    0.0000 N   0  0  0  0  0  0  0  0  0  0  0  0
    2.5167    2.3500    0.0000 O   0  0  0  0  0  0  0  0  0  0  0  0
    4.0167    3.6500    0.0000 C   0  0  0  0  0  0  0  0  0  0  0  0
    5.8917    3.0000    0.0000 C   0  0  0  0  0  0  0  0  0  0  0  0
    1.3917    0.4083    0.0000 O   0  5  0  0  0  0  0  0  0  0  0  0
    2.5167    1.0583    0.0000 O   0  0  0  0  0  0  0  0  0  0  0  0
    1.3917    3.0000    0.0000 C   0  0  0  0  0  0  0  0  0  0  0  0
    5.1417    4.2917    0.0000 O   0  0  0  0  0  0  0  0  0  0  0  0
    3.6417    3.0000    0.0000 C   0  0  0  0  0  0  0  0  0  0  0  0
    2.8917    3.0000    0.0000 C   0  0  0  0  0  0  0  0  0  0  0  0
    6.2667    2.3500    0.0000 C   0  0  0  0  0  0  0  0  0  0  0  0
    0.6417    1.7000    0.0000 C   0  0  0  0  0  0  0  0  0  0  0  0
    1.7667    3.6500    0.0000 Cl  0  0  0  0  0  0  0  0  0  0  0  0
    5.8917    1.7000    0.0000 O   0  0  0  0  0  0  0  0  0  0  0  0
    3.6417    4.2917    0.0000 C   0  0  0  0  0  0  0  0  0  0  0  0
    0.2667    2.3500    0.0000 C   0  0  0  0  0  0  0  0  0  0  0  0
    2.8917    4.2917    0.0000 C   0  0  0  0  0  0  0  0  0  0  0  0
    6.2667    3.6500    0.0000 C   0  0  0  0  0  0  0  0  0  0  0  0
    0.6417    3.0000    0.0000 C   0  0  0  0  0  0  0  0  0  0  0  0
    2.5167    3.6500    0.0000 C   0  0  0  0  0  0  0  0  0  0  0  0
    7.0167    2.3500    0.0000 C   0  0  0  0  0  0  0  0  0  0  0  0
    6.2667    1.0583    0.0000 C   0  0  0  0  0  0  0  0  0  0  0  0
    7.0167    3.6500    0.0000 C   0  0  0  0  0  0  0  0  0  0  0  0
    7.3917    3.0000    0.0000 C   0  0  0  0  0  0  0  0  0  0  0  0
  2  1  1  0  0  0  0
  3  2  2  0  0  0  0
  4  7  1  0  0  0  0
  5  4  1  0  0  0  0
  6  3  1  0  0  0  0
  7 13  1  0  0  0  0
  8  5  1  0  0  0  0
  9  1  1  0  0  0  0
 10  1  2  0  0  0  0
 11  3  1  0  0  0  0
 12  4  2  0  0  0  0
 13 14  2  0  0  0  0
 14  6  1  0  0  0  0
 15  8  1  0  0  0  0
 16  2  1  0  0  0  0
 17 11  1  0  0  0  0
 18 15  1  0  0  0  0
 19 21  1  0  0  0  0
 20 16  2  0  0  0  0
 21 24  2  0  0  0  0
 22  8  2  0  0  0  0
 23 20  1  0  0  0  0
 24 14  1  0  0  0  0
 25 15  2  0  0  0  0
 26 18  1  0  0  0  0
 27 22  1  0  0  0  0
 28 27  2  0  0  0  0
 11 23  2  0  0  0  0
 19  7  2  0  0  0  0
 28 25  1  0  0  0  0
M  CHG  2   1   1   9  -1
M  END
>  <ID> (9008458)
9008458

>  <Supplier> (9008458)
ChemBridge

>  <clogP> (9008458)
4.180000000000000e+000

>  <RB> (9008458)
4

>  <tPSA> (9008458)
9.070000000000000e+001

>  <Hacc> (9008458)
5

>  <Hdon> (9008458)
1

>  <LogSw> (9008458)
-6.066999999999998e+000

>  <Group> (9008458)
1

>  <Core> (9008458)
511

$$$$
5964614
  -ISIS-  03310818232D

 19 21  0  0  0  0  0  0  0  0999 V2000
    6.1667    2.1625    0.0000 C   0  0  0  0  0  0  0  0  0  0  0  0
    4.9042    2.9083    0.0000 C   0  0  0  0  0  0  0  0  0  0  0  0
    3.6542    2.1750    0.0000 C   0  0  0  0  0  0  0  0  0  0  0  0
    7.3792    2.8833    0.0000 C   0  0  0  0  0  0  0  0  0  0  0  0
    6.1542    0.7208    0.0000 C   0  0  0  0  0  0  0  0  0  0  0  0
    4.8917    0.0000    0.0000 O   0  0  0  0  0  0  0  0  0  0  0  0
    8.5917    2.1833    0.0000 C   0  0  0  0  0  0  0  0  0  0  0  0
    3.6667    0.7625    0.0000 C   0  0  0  0  0  0  0  0  0  0  0  0
    9.6917    3.0583    0.0000 O   0  0  0  0  0  0  0  0  0  0  0  0
    2.4292    2.8833    0.0000 C   0  0  0  0  0  0  0  0  0  0  0  0
    4.9042    4.1042    0.0000 O   0  0  0  0  0  0  0  0  0  0  0  0
    7.3792    4.1042    0.0000 O   0  0  0  0  0  0  0  0  0  0  0  0
    9.0792    0.8708    0.0000 C   0  0  0  0  0  0  0  0  0  0  0  0
   10.8542    2.2750    0.0000 C   0  0  0  0  0  0  0  0  0  0  0  0
   10.4667    0.9083    0.0000 C   0  0  0  0  0  0  0  0  0  0  0  0
    2.4375    0.0583    0.0000 C   0  0  0  0  0  0  0  0  0  0  0  0
    1.2167    2.1833    0.0000 C   0  0  0  0  0  0  0  0  0  0  0  0
    1.2167    0.7625    0.0000 C   0  0  0  0  0  0  0  0  0  0  0  0
    0.0000    2.8958    0.0000 Cl  0  0  0  0  0  0  0  0  0  0  0  0
  2  1  1  0  0  0  0
  3  2  1  0  0  0  0
  4  1  1  0  0  0  0
  5  1  2  0  0  0  0
  6  5  1  0  0  0  0
  7  4  1  0  0  0  0
  8  6  1  0  0  0  0
  9  7  1  0  0  0  0
 10  3  1  0  0  0  0
 11  2  2  0  0  0  0
 12  4  2  0  0  0  0
 13  7  2  0  0  0  0
 14  9  1  0  0  0  0
 15 13  1  0  0  0  0
 16  8  1  0  0  0  0
 17 10  2  0  0  0  0
 18 16  2  0  0  0  0
 19 17  1  0  0  0  0
  8  3  2  0  0  0  0
 15 14  2  0  0  0  0
 18 17  1  0  0  0  0
M  END
>  <ID> (5964614)
5964614

>  <Supplier> (5964614)
ChemBridge

>  <clogP> (5964614)
2.460000000000000e+000

>  <RB> (5964614)
2

>  <tPSA> (5964614)
6.042000000000000e+001

>  <Hacc> (5964614)
4

>  <Hdon> (5964614)
0

>  <LogSw> (5964614)
-3.304000000000000e+000

>  <Group> (5964614)
3

$$$$
7692024
  -ISIS-  03310818262D

 20 21  0  0  0  0  0  0  0  0999 V2000
    6.0792   -4.1167    0.0000 N   0  0  0  0  0  0  0  0  0  0  0  0
    6.2375   -2.7042    0.0000 N   0  0  0  0  0  0  0  0  0  0  0  0
    6.5667   -3.4542    0.0000 C   0  0  0  0  0  0  0  0  0  0  0  0
    5.4167   -2.6167    0.0000 C   0  0  0  0  0  0  0  0  0  0  0  0
    5.2667   -4.0375    0.0000 C   0  0  0  0  0  0  0  0  0  0  0  0
    4.9375   -3.2792    0.0000 C   0  0  0  0  0  0  0  0  0  0  0  0
    8.6167   -2.8167    0.0000 C   0  0  0  0  0  0  0  0  0  0  0  0
    7.3875   -3.5417    0.0000 S   0  0  0  0  0  0  0  0  0  0  0  0
    9.4375   -2.8125    0.0000 N   0  0  0  0  0  0  0  0  0  0  0  0
    8.2000   -2.1042    0.0000 O   0  0  0  0  0  0  0  0  0  0  0  0
    8.2125   -3.5417    0.0000 C   0  0  0  0  0  0  0  0  0  0  0  0
    5.0917   -1.8667    0.0000 N   0  0  0  0  0  0  0  0  0  0  0  0
    4.7875   -4.7000    0.0000 N   0  0  0  0  0  0  0  0  0  0  0  0
    9.8417   -2.0917    0.0000 C   0  0  0  0  0  0  0  0  0  0  0  0
   10.6542   -0.6542    0.0000 C   0  0  0  0  0  0  0  0  0  0  0  0
   11.0625    0.0708    0.0000 F   0  0  0  0  0  0  0  0  0  0  0  0
    9.4250   -1.3792    0.0000 C   0  0  0  0  0  0  0  0  0  0  0  0
   10.6750   -2.0792    0.0000 C   0  0  0  0  0  0  0  0  0  0  0  0
    9.8292   -0.6542    0.0000 C   0  0  0  0  0  0  0  0  0  0  0  0
   11.0750   -1.3667    0.0000 C   0  0  0  0  0  0  0  0  0  0  0  0
  2  3  2  0  0  0  0
  3  1  1  0  0  0  0
  4  6  2  0  0  0  0
  5  1  2  0  0  0  0
  6  5  1  0  0  0  0
  7 11  1  0  0  0  0
  8  3  1  0  0  0  0
  9  7  1  0  0  0  0
 10  7  2  0  0  0  0
 11  8  1  0  0  0  0
 12  4  1  0  0  0  0
 13  5  1  0  0  0  0
 14  9  1  0  0  0  0
 15 20  2  0  0  0  0
 16 15  1  0  0  0  0
 17 14  1  0  0  0  0
 18 14  2  0  0  0  0
 19 17  2  0  0  0  0
 20 18  1  0  0  0  0
  4  2  1  0  0  0  0
 19 15  1  0  0  0  0
M  END
>  <ID> (7692024)
7692024

>  <Supplier> (7692024)
ChemBridge

>  <clogP> (7692024)
1.805000000000000e+000

>  <RB> (7692024)
4

>  <tPSA> (7692024)
1.069200000000000e+002

>  <Hacc> (7692024)
3

>  <Hdon> (7692024)
3

>  <LogSw> (7692024)
-2.407000000000000e+000

>  <Group> (7692024)
2

>  <Core> (7692024)
016

$$$$
5377487
  -ISIS-  03310818222D

 22 24  0  0  0  0  0  0  0  0999 V2000
   -1.8958   -0.6667    0.0000 N   0  0  0  0  0  0  0  0  0  0  0  0
   -1.3458   -1.0500    0.0000 C   0  0  0  0  0  0  0  0  0  0  0  0
   -2.4208   -1.0500    0.0000 C   0  0  0  0  0  0  0  0  0  0  0  0
   -1.5500   -1.7042    0.0000 S   0  0  0  0  0  0  0  0  0  0  0  0
   -2.2208   -1.7042    0.0000 C   0  0  0  0  0  0  0  0  0  0  0  0
   -0.5958   -0.1542    0.0000 N   0  0  0  0  0  0  0  0  0  0  0  0
   -3.0333   -0.8167    0.0000 C   0  0  0  0  0  0  0  0  0  0  0  0
   -0.7000   -0.8167    0.0000 N   0  0  0  0  0  0  0  0  0  0  0  0
   -3.1333   -0.1667    0.0000 C   0  0  0  0  0  0  0  0  0  0  0  0
   -3.5458   -1.2292    0.0000 C   0  0  0  0  0  0  0  0  0  0  0  0
    0.0292    0.0708    0.0000 C   0  0  0  0  0  0  0  0  0  0  0  0
   -4.2708   -0.3500    0.0000 C   0  0  0  0  0  0  0  0  0  0  0  0
    0.1375    0.7458    0.0000 C   0  0  0  0  0  0  0  0  0  0  0  0
    0.3375    2.0833    0.0000 C   0  0  0  0  0  0  0  0  0  0  0  0
   -3.7500    0.0625    0.0000 C   0  0  0  0  0  0  0  0  0  0  0  0
   -4.1625   -0.9875    0.0000 C   0  0  0  0  0  0  0  0  0  0  0  0
    0.4042    2.7458    0.0000 Br  0  0  0  0  0  0  0  0  0  0  0  0
   -4.8708   -0.1167    0.0000 Cl  0  0  0  0  0  0  0  0  0  0  0  0
   -0.2708    1.8333    0.0000 C   0  0  0  0  0  0  0  0  0  0  0  0
    0.8667    1.6500    0.0000 C   0  0  0  0  0  0  0  0  0  0  0  0
    0.7667    0.9958    0.0000 C   0  0  0  0  0  0  0  0  0  0  0  0
   -0.3708    1.1625    0.0000 C   0  0  0  0  0  0  0  0  0  0  0  0
  2  1  2  0  0  0  0
  3  1  1  0  0  0  0
  4  2  1  0  0  0  0
  5  3  2  0  0  0  0
  6  8  1  0  0  0  0
  7  3  1  0  0  0  0
  8  2  1  0  0  0  0
  9  7  2  0  0  0  0
 10  7  1  0  0  0  0
 11  6  2  0  0  0  0
 12 16  1  0  0  0  0
 13 11  1  0  0  0  0
 14 19  1  0  0  0  0
 15  9  1  0  0  0  0
 16 10  2  0  0  0  0
 17 14  1  0  0  0  0
 18 12  1  0  0  0  0
 19 22  2  0  0  0  0
 20 21  1  0  0  0  0
 21 13  2  0  0  0  0
 22 13  1  0  0  0  0
  4  5  1  0  0  0  0
 15 12  2  0  0  0  0
 14 20  2  0  0  0  0
M  END
>  <ID> (5377487)
5377487

>  <Supplier> (5377487)
ChemBridge

>  <clogP> (5377487)
6.370000000000000e+000

>  <RB> (5377487)
4

>  <tPSA> (5377487)
3.728000000000000e+001

>  <Hacc> (5377487)
2

>  <Hdon> (5377487)
1

>  <LogSw> (5377487)
-7.503000000000000e+000

>  <Group> (5377487)
1

$$$$
5377486
  -ISIS-  03310818222D

 17 18  0  0  0  0  0  0  0  0999 V2000
    0.5542   -1.2292    0.0000 N   0  0  3  0  0  0  0  0  0  0  0  0
    0.2667   -2.1667    0.0000 C   0  0  0  0  0  0  0  0  0  0  0  0
    1.5042   -1.2292    0.0000 C   0  0  0  0  0  0  0  0  0  0  0  0
    0.0042   -0.4500    0.0000 C   0  0  0  0  0  0  0  0  0  0  0  0
    1.0667   -2.7167    0.0000 S   0  0  0  0  0  0  0  0  0  0  0  0
   -0.9500   -0.5292    0.0000 N   0  0  0  0  0  0  0  0  0  0  0  0
    1.8500   -2.1167    0.0000 C   0  0  0  0  0  0  0  0  0  0  0  0
   -1.5000    0.2625    0.0000 C   0  0  0  0  0  0  0  0  0  0  0  0
   -2.4500    0.1958    0.0000 C   0  0  0  0  0  0  0  0  0  0  0  0
   -0.6333   -2.4875    0.0000 O   0  0  0  0  0  0  0  0  0  0  0  0
    2.0500   -0.4375    0.0000 O   0  0  0  0  0  0  0  0  0  0  0  0
   -3.0125    0.9625    0.0000 C   0  0  0  0  0  0  0  0  0  0  0  0
   -1.1125    1.1458    0.0000 C   0  0  0  0  0  0  0  0  0  0  0  0
   -2.6208    1.8458    0.0000 C   0  0  0  0  0  0  0  0  0  0  0  0
   -1.6625    1.9208    0.0000 C   0  0  0  0  0  0  0  0  0  0  0  0
   -2.8500   -0.6667    0.0000 C   0  0  0  0  0  0  0  0  0  0  0  0
   -3.1708    2.6125    0.0000 C   0  0  0  0  0  0  0  0  0  0  0  0
  2  1  1  0  0  0  0
  3  1  1  0  0  0  0
  4  1  1  0  0  0  0
  5  2  1  0  0  0  0
  6  4  1  0  0  0  0
  7  3  1  0  0  0  0
  8  6  1  0  0  0  0
  9  8  1  0  0  0  0
 10  2  2  0  0  0  0
 11  3  2  0  0  0  0
 12  9  2  0  0  0  0
 13  8  2  0  0  0  0
 14 15  2  0  0  0  0
 15 13  1  0  0  0  0
 16  9  1  0  0  0  0
 17 14  1  0  0  0  0
  5  7  1  0  0  0  0
 14 12  1  0  0  0  0
M  END
>  <ID> (5377486)
5377486

>  <Supplier> (5377486)
ChemBridge

>  <clogP> (5377486)
1.560000000000000e+000

>  <RB> (5377486)
3

>  <tPSA> (5377486)
4.941000000000002e+001

>  <Hacc> (5377486)
2

>  <Hdon> (5377486)
1

>  <LogSw> (5377486)
-2.359000000000000e+000

>  <Group> (5377486)
3

$$$$
5748717
  -ISIS-  03310818222D

 23 25  0  0  0  0  0  0  0  0999 V2000
    4.5792   -2.1250    0.0000 C   0  0  0  0  0  0  0  0  0  0  0  0
    5.2292   -2.5000    0.0000 C   0  0  0  0  0  0  0  0  0  0  0  0
    4.5792   -1.3750    0.0000 N   0  0  0  0  0  0  0  0  0  0  0  0
    5.8792   -2.1292    0.0000 C   0  0  0  0  0  0  0  0  0  0  0  0
    3.9292   -2.5000    0.0000 O   0  0  0  0  0  0  0  0  0  0  0  0
    0.0292   -1.0042    0.0000 N   0  0  0  0  0  0  0  0  0  0  0  0
    3.9292   -1.0000    0.0000 C   0  0  0  0  0  0  0  0  0  0  0  0
    2.6292   -0.2500    0.0000 C   0  0  0  0  0  0  0  0  0  0  0  0
    5.8792   -1.3792    0.0000 F   0  0  0  0  0  0  0  0  0  0  0  0
    1.9792    0.1250    0.0000 C   0  0  0  0  0  0  0  0  0  0  0  0
    5.2292   -3.2500    0.0000 C   0  0  0  0  0  0  0  0  0  0  0  0
    3.9292   -0.2500    0.0000 C   0  0  0  0  0  0  0  0  0  0  0  0
    3.2792   -1.3750    0.0000 C   0  0  0  0  0  0  0  0  0  0  0  0
    3.2792    0.1250    0.0000 C   0  0  0  0  0  0  0  0  0  0  0  0
    2.6292   -1.0000    0.0000 C   0  0  0  0  0  0  0  0  0  0  0  0
    1.3292   -0.2500    0.0000 C   0  0  0  0  0  0  0  0  0  0  0  0
    0.6792   -1.3792    0.0000 C   0  0  0  0  0  0  0  0  0  0  0  0
    0.0292   -0.2500    0.0000 C   0  0  0  0  0  0  0  0  0  0  0  0
    6.5292   -2.5042    0.0000 C   0  0  0  0  0  0  0  0  0  0  0  0
    0.6792    0.1333    0.0000 C   0  0  0  0  0  0  0  0  0  0  0  0
    1.3292   -1.0042    0.0000 C   0  0  0  0  0  0  0  0  0  0  0  0
    5.8792   -3.6292    0.0000 C   0  0  0  0  0  0  0  0  0  0  0  0
    6.5292   -3.2542    0.0000 C   0  0  0  0  0  0  0  0  0  0  0  0
  2  1  1  0  0  0  0
  3  1  1  0  0  0  0
  4  2  2  0  0  0  0
  5  1  2  0  0  0  0
  6 17  2  0  0  0  0
  7  3  1  0  0  0  0
  8 15  1  0  0  0  0
  9  4  1  0  0  0  0
 10  8  1  0  0  0  0
 11  2  1  0  0  0  0
 12  7  2  0  0  0  0
 13  7  1  0  0  0  0
 14 12  1  0  0  0  0
 15 13  2  0  0  0  0
 16 10  1  0  0  0  0
 17 21  1  0  0  0  0
 18 20  2  0  0  0  0
 19  4  1  0  0  0  0
 20 16  1  0  0  0  0
 21 16  2  0  0  0  0
 22 11  2  0  0  0  0
 23 22  1  0  0  0  0
 14  8  2  0  0  0  0
 23 19  2  0  0  0  0
 18  6  1  0  0  0  0
M  END
>  <ID> (5748717)
5748717

>  <Supplier> (5748717)
ChemBridge

>  <clogP> (5748717)
3.150000000000000e+000

>  <RB> (5748717)
4

>  <tPSA> (5748717)
4.199000000000000e+001

>  <Hacc> (5748717)
2

>  <Hdon> (5748717)
1

>  <LogSw> (5748717)
-2.824000000000000e+000

>  <Group> (5748717)
1

$$$$
5714627
  -ISIS-  03310818222D

 20 22  0  0  0  0  0  0  0  0999 V2000
    0.2667    0.6458    0.0000 N   0  0  0  0  0  0  0  0  0  0  0  0
    1.2000    0.9000    0.0000 C   0  0  0  0  0  0  0  0  0  0  0  0
   -0.2625    1.4458    0.0000 C   0  0  0  0  0  0  0  0  0  0  0  0
    1.2667    1.8708    0.0000 S   0  0  0  0  0  0  0  0  0  0  0  0
    0.3667    2.2458    0.0000 C   0  0  0  0  0  0  0  0  0  0  0  0
    1.9500    0.3000    0.0000 N   0  0  0  0  0  0  0  0  0  0  0  0
   -1.2333    1.4458    0.0000 C   0  0  0  0  0  0  0  0  0  0  0  0
   -1.7125    2.3000    0.0000 C   0  0  0  0  0  0  0  0  0  0  0  0
   -1.7333    0.5958    0.0000 C   0  0  0  0  0  0  0  0  0  0  0  0
    2.8500    0.6458    0.0000 C   0  0  0  0  0  0  0  0  0  0  0  0
   -3.1958    1.4458    0.0000 C   0  0  0  0  0  0  0  0  0  0  0  0
   -2.6958    2.3000    0.0000 C   0  0  0  0  0  0  0  0  0  0  0  0
   -2.7208    0.5958    0.0000 C   0  0  0  0  0  0  0  0  0  0  0  0
   -4.1583    1.4458    0.0000 O   0  0  0  0  0  0  0  0  0  0  0  0
    3.6292    0.0458    0.0000 C   0  0  0  0  0  0  0  0  0  0  0  0
    3.0000    1.5958    0.0000 C   0  0  0  0  0  0  0  0  0  0  0  0
   -4.6125    2.2708    0.0000 C   0  0  0  0  0  0  0  0  0  0  0  0
    3.9000    1.9625    0.0000 C   0  0  0  0  0  0  0  0  0  0  0  0
    4.5167    0.4000    0.0000 C   0  0  0  0  0  0  0  0  0  0  0  0
    4.6667    1.3708    0.0000 C   0  0  0  0  0  0  0  0  0  0  0  0
  2  1  2  0  0  0  0
  3  1  1  0  0  0  0
  4  2  1  0  0  0  0
  5  3  2  0  0  0  0
  6  2  1  0  0  0  0
  7  3  1  0  0  0  0
  8  7  1  0  0  0  0
  9  7  2  0  0  0  0
 10  6  1  0  0  0  0
 11 13  2  0  0  0  0
 12  8  2  0  0  0  0
 13  9  1  0  0  0  0
 14 11  1  0  0  0  0
 15 10  2  0  0  0  0
 16 10  1  0  0  0  0
 17 14  1  0  0  0  0
 18 16  2  0  0  0  0
 19 15  1  0  0  0  0
 20 18  1  0  0  0  0
  4  5  1  0  0  0  0
 11 12  1  0  0  0  0
 19 20  2  0  0  0  0
M  END
>  <ID> (5714627)
5714627

>  <Supplier> (5714627)
ChemBridge

>  <clogP> (5714627)
5.109999999999999e+000

>  <RB> (5714627)
3

>  <tPSA> (5714627)
3.415000000000000e+001

>  <Hacc> (5714627)
2

>  <Hdon> (5714627)
1

>  <LogSw> (5714627)
-5.623999999999998e+000

>  <Group> (5714627)
3

>  <Core> (5714627)
225

$$$$
9008453
  -ISIS-  03310818282D

 25 27  0  0  0  0  0  0  0  0999 V2000
    6.3292    3.4833    0.0000 C   0  0  0  0  0  0  0  0  0  0  0  0
    5.9542    2.8333    0.0000 N   0  0  3  0  0  0  0  0  0  0  0  0
    7.0792    3.4833    0.0000 C   0  0  0  0  0  0  0  0  0  0  0  0
    8.5792    2.1833    0.0000 N   0  3  0  0  0  0  0  0  0  0  0  0
    7.4542    2.8333    0.0000 C   0  0  0  0  0  0  0  0  0  0  0  0
    5.2042    2.8333    0.0000 C   0  0  0  0  0  0  0  0  0  0  0  0
    8.2042    2.8333    0.0000 C   0  0  0  0  0  0  0  0  0  0  0  0
    7.4542    4.1250    0.0000 C   0  0  0  0  0  0  0  0  0  0  0  0
    9.3292    2.1833    0.0000 O   0  5  0  0  0  0  0  0  0  0  0  0
    5.9542    4.1250    0.0000 O   0  0  0  0  0  0  0  0  0  0  0  0
    8.2042    1.5333    0.0000 O   0  0  0  0  0  0  0  0  0  0  0  0
    4.8292    2.1833    0.0000 C   0  0  0  0  0  0  0  0  0  0  0  0
    8.5792    3.4833    0.0000 C   0  0  0  0  0  0  0  0  0  0  0  0
    8.2042    4.1250    0.0000 C   0  0  0  0  0  0  0  0  0  0  0  0
    6.3292    2.1833    0.0000 C   0  0  0  0  0  0  0  0  0  0  0  0
    7.0792    4.7750    0.0000 N   0  0  0  0  0  0  0  0  0  0  0  0
    4.8292    3.4833    0.0000 C   0  0  0  0  0  0  0  0  0  0  0  0
    5.9542    1.5333    0.0000 C   0  0  0  0  0  0  0  0  0  0  0  0
    5.2042    1.5333    0.0000 C   0  0  0  0  0  0  0  0  0  0  0  0
    4.0792    2.1833    0.0000 C   0  0  0  0  0  0  0  0  0  0  0  0
    7.4542    5.4167    0.0000 C   0  0  0  0  0  0  0  0  0  0  0  0
    7.0792    6.0750    0.0000 C   0  0  0  0  0  0  0  0  0  0  0  0
    4.0792    3.4833    0.0000 C   0  0  0  0  0  0  0  0  0  0  0  0
    7.4542    6.7167    0.0000 C   0  0  0  0  0  0  0  0  0  0  0  0
    3.7042    2.8333    0.0000 C   0  0  0  0  0  0  0  0  0  0  0  0
  2  1  1  0  0  0  0
  3  1  1  0  0  0  0
  4  7  1  0  0  0  0
  5  3  1  0  0  0  0
  6  2  1  0  0  0  0
  7  5  2  0  0  0  0
  8  3  2  0  0  0  0
  9  4  1  0  0  0  0
 10  1  2  0  0  0  0
 11  4  2  0  0  0  0
 12  6  1  0  0  0  0
 13 14  2  0  0  0  0
 14  8  1  0  0  0  0
 15  2  1  0  0  0  0
 16  8  1  0  0  0  0
 17  6  2  0  0  0  0
 18 15  1  0  0  0  0
 19 18  1  0  0  0  0
 20 12  2  0  0  0  0
 21 16  1  0  0  0  0
 22 21  1  0  0  0  0
 23 17  1  0  0  0  0
 24 22  1  0  0  0  0
 25 23  2  0  0  0  0
  7 13  1  0  0  0  0
 12 19  1  0  0  0  0
 20 25  1  0  0  0  0
M  CHG  2   4   1   9  -1
M  END
>  <ID> (9008453)
9008453

>  <Supplier> (9008453)
ChemBridge

>  <clogP> (9008453)
4.230000000000000e+000

>  <RB> (9008453)
2

>  <tPSA> (9008453)
7.548000000000000e+001

>  <Hacc> (9008453)
3

>  <Hdon> (9008453)
1

>  <LogSw> (9008453)
-5.287000000000000e+000

>  <Group> (9008453)
2

$$$$
9008455
  -ISIS-  03310818282D

 16 18  0  0  0  0  0  0  0  0999 V2000
    2.5292    1.2583    0.0000 C   0  0  0  0  0  0  0  0  0  0  0  0
    1.8417    1.5708    0.0000 O   0  0  0  0  0  0  0  0  0  0  0  0
    2.4417    0.5125    0.0000 N   0  0  0  0  0  0  0  0  0  0  0  0
    1.7167    0.3583    0.0000 N   0  0  0  0  0  0  0  0  0  0  0  0
    1.3417    1.0083    0.0000 C   0  0  0  0  0  0  0  0  0  0  0  0
    3.8250    1.2583    0.0000 N   0  0  0  0  0  0  0  0  0  0  0  0
    3.1792    1.6333    0.0000 C   0  0  0  0  0  0  0  0  0  0  0  0
    4.4750    1.6333    0.0000 C   0  0  0  0  0  0  0  0  0  0  0  0
    3.1792    2.3833    0.0000 C   0  0  0  0  0  0  0  0  0  0  0  0
    0.5917    1.0875    0.0000 S   0  0  0  0  0  0  0  0  0  0  0  0
    4.4750    2.3833    0.0000 C   0  0  0  0  0  0  0  0  0  0  0  0
    3.8250    2.7583    0.0000 C   0  0  0  0  0  0  0  0  0  0  0  0
    5.1250    1.2583    0.0000 C   0  0  0  0  0  0  0  0  0  0  0  0
    5.1250    2.7583    0.0000 C   0  0  0  0  0  0  0  0  0  0  0  0
    5.7750    1.6333    0.0000 C   0  0  0  0  0  0  0  0  0  0  0  0
    5.7750    2.3833    0.0000 C   0  0  0  0  0  0  0  0  0  0  0  0
  2  1  1  0  0  0  0
  3  1  2  0  0  0  0
  4  3  1  0  0  0  0
  5  2  1  0  0  0  0
  6  7  2  0  0  0  0
  7  1  1  0  0  0  0
  8  6  1  0  0  0  0
  9  7  1  0  0  0  0
 10  5  1  0  0  0  0
 11 12  1  0  0  0  0
 12  9  2  0  0  0  0
 13  8  1  0  0  0  0
 14 11  1  0  0  0  0
 15 13  2  0  0  0  0
 16 14  2  0  0  0  0
  5  4  2  0  0  0  0
 11  8  2  0  0  0  0
 16 15  1  0  0  0  0
M  END
>  <ID> (9008455)
9008455

>  <Supplier> (9008455)
ChemBridge

>  <clogP> (9008455)
1.920000000000000e+000

>  <RB> (9008455)
1

>  <tPSA> (9008455)
5.181000000000000e+001

>  <Hacc> (9008455)
4

>  <Hdon> (9008455)
0

>  <LogSw> (9008455)
-2.513000000000000e+000

>  <Group> (9008455)
1

$$$$
5489455
  -ISIS-  03310818222D

 22 23  0  0  0  0  0  0  0  0999 V2000
   -1.7208    0.7625    0.0000 C   0  0  0  0  0  0  0  0  0  0  0  0
   -0.1208    1.7000    0.0000 C   0  0  0  0  0  0  0  0  0  0  0  0
   -2.5333    0.2958    0.0000 C   0  0  0  0  0  0  0  0  0  0  0  0
   -1.7208    1.6958    0.0000 N   0  0  0  0  0  0  0  0  0  0  0  0
   -0.9208    2.1625    0.0000 N   0  0  0  0  0  0  0  0  0  0  0  0
    0.6667    2.1625    0.0000 C   0  0  0  0  0  0  0  0  0  0  0  0
    1.4792    1.7125    0.0000 C   0  0  0  0  0  0  0  0  0  0  0  0
    2.2792    2.1708    0.0000 C   0  0  0  0  0  0  0  0  0  0  0  0
    2.2792    3.1083    0.0000 C   0  0  0  0  0  0  0  0  0  0  0  0
   -0.9208    0.2958    0.0000 O   0  0  0  0  0  0  0  0  0  0  0  0
   -0.1125    0.7833    0.0000 O   0  0  0  0  0  0  0  0  0  0  0  0
   -3.3458   -1.1167    0.0000 N   0  0  0  0  0  0  0  0  0  0  0  0
    0.6667    3.0958    0.0000 C   0  0  0  0  0  0  0  0  0  0  0  0
    1.4792    3.5625    0.0000 C   0  0  0  0  0  0  0  0  0  0  0  0
   -2.5333   -0.6500    0.0000 C   0  0  0  0  0  0  0  0  0  0  0  0
    3.0792    1.7000    0.0000 O   0  0  0  0  0  0  0  0  0  0  0  0
    3.0792    3.5708    0.0000 O   0  0  0  0  0  0  0  0  0  0  0  0
   -3.3458    0.7625    0.0000 C   0  0  0  0  0  0  0  0  0  0  0  0
   -4.1583   -0.6500    0.0000 C   0  0  0  0  0  0  0  0  0  0  0  0
    3.0792    0.7958    0.0000 C   0  0  0  0  0  0  0  0  0  0  0  0
    3.8667    3.1208    0.0000 C   0  0  0  0  0  0  0  0  0  0  0  0
   -4.1583    0.2958    0.0000 C   0  0  0  0  0  0  0  0  0  0  0  0
  2  5  1  0  0  0  0
  3  1  1  0  0  0  0
  4  1  1  0  0  0  0
  5  4  1  0  0  0  0
  6  2  1  0  0  0  0
  7  6  2  0  0  0  0
  8  7  1  0  0  0  0
  9 14  1  0  0  0  0
 10  1  2  0  0  0  0
 11  2  2  0  0  0  0
 12 15  1  0  0  0  0
 13  6  1  0  0  0  0
 14 13  2  0  0  0  0
 15  3  2  0  0  0  0
 16  8  1  0  0  0  0
 17  9  1  0  0  0  0
 18  3  1  0  0  0  0
 19 22  1  0  0  0  0
 20 16  1  0  0  0  0
 21 17  1  0  0  0  0
 22 18  2  0  0  0  0
 19 12  2  0  0  0  0
  9  8  2  0  0  0  0
M  END
>  <ID> (5489455)
5489455

>  <Supplier> (5489455)
ChemBridge

>  <clogP> (5489455)
2.620000000000000e+000

>  <RB> (5489455)
3

>  <tPSA> (5489455)
8.955000000000004e+001

>  <Hacc> (5489455)
5

>  <Hdon> (5489455)
2

>  <LogSw> (5489455)
-3.635000000000000e+000

>  <Group> (5489455)
1

>  <Core> (5489455)
442

$$$$
6249789
  -ISIS-  03310818232D

 30 32  0  0  0  0  0  0  0  0999 V2000
    1.2125   -0.0250    0.0000 N   0  0  3  0  0  0  0  0  0  0  0  0
    1.7917    1.1500    0.0000 N   0  0  3  0  0  0  0  0  0  0  0  0
    1.8417    0.3958    0.0000 C   0  0  0  0  0  0  0  0  0  0  0  0
    0.4917    1.0708    0.0000 C   0  0  3  0  0  0  0  0  0  0  0  0
    0.5375    0.3125    0.0000 C   0  0  0  0  0  0  0  0  0  0  0  0
    2.3375    1.7708    0.0000 N   0  0  0  0  0  0  0  0  0  0  0  0
   -0.1333    1.6125    0.0000 C   0  0  0  0  0  0  0  0  0  0  0  0
    3.1542    1.6083    0.0000 C   0  0  0  0  0  0  0  0  0  0  0  0
    1.2625   -0.7750    0.0000 C   0  0  0  0  0  0  0  0  0  0  0  0
    2.5167    0.0583    0.0000 S   0  0  0  0  0  0  0  0  0  0  0  0
   -0.9208    1.3458    0.0000 C   0  0  0  0  0  0  0  0  0  0  0  0
   -0.0958   -0.1042    0.0000 O   0  0  0  0  0  0  0  0  0  0  0  0
    3.6917    2.2250    0.0000 C   0  0  0  0  0  0  0  0  0  0  0  0
    3.4167    0.8250    0.0000 O   0  0  0  0  0  0  0  0  0  0  0  0
   -1.0833    0.5333    0.0000 O   0  0  0  0  0  0  0  0  0  0  0  0
    4.5042    2.0708    0.0000 C   0  0  0  0  0  0  0  0  0  0  0  0
    3.4292    3.0083    0.0000 C   0  0  0  0  0  0  0  0  0  0  0  0
   -1.5375    1.8958    0.0000 N   0  0  0  0  0  0  0  0  0  0  0  0
    4.7792    3.4833    0.0000 C   0  0  0  0  0  0  0  0  0  0  0  0
    2.0000   -1.1417    0.0000 C   0  0  0  0  0  0  0  0  0  0  0  0
    5.0500    2.6875    0.0000 C   0  0  0  0  0  0  0  0  0  0  0  0
    3.9667    3.6333    0.0000 C   0  0  0  0  0  0  0  0  0  0  0  0
    5.3250    4.0917    0.0000 Br  0  0  0  0  0  0  0  0  0  0  0  0
   -2.3250    1.6333    0.0000 C   0  0  0  0  0  0  0  0  0  0  0  0
    2.0500   -1.9667    0.0000 C   0  0  0  0  0  0  0  0  0  0  0  0
    2.6792   -0.6875    0.0000 C   0  0  0  0  0  0  0  0  0  0  0  0
   -2.9458    2.1833    0.0000 C   0  0  0  0  0  0  0  0  0  0  0  0
    3.4250   -1.0500    0.0000 C   0  0  0  0  0  0  0  0  0  0  0  0
    2.7917   -2.3292    0.0000 C   0  0  0  0  0  0  0  0  0  0  0  0
    3.4792   -1.8750    0.0000 C   0  0  0  0  0  0  0  0  0  0  0  0
  2  3  1  0  0  0  0
  3  1  1  0  0  0  0
  4  5  1  0  0  0  0
  5  1  1  0  0  0  0
  6  2  1  0  0  0  0
  7  4  1  0  0  0  0
  8  6  1  0  0  0  0
  9  1  1  0  0  0  0
 10  3  2  0  0  0  0
 11  7  1  0  0  0  0
 12  5  2  0  0  0  0
 13  8  1  0  0  0  0
 14  8  2  0  0  0  0
 15 11  2  0  0  0  0
 16 13  1  0  0  0  0
 17 13  2  0  0  0  0
 18 11  1  0  0  0  0
 19 22  2  0  0  0  0
 20  9  1  0  0  0  0
 21 16  2  0  0  0  0
 22 17  1  0  0  0  0
 23 19  1  0  0  0  0
 24 18  1  0  0  0  0
 25 20  2  0  0  0  0
 26 20  1  0  0  0  0
 27 24  1  0  0  0  0
 28 26  2  0  0  0  0
 29 25  1  0  0  0  0
 30 28  1  0  0  0  0
  4  2  1  0  0  0  0
 29 30  2  0  0  0  0
 21 19  1  0  0  0  0
M  END
>  <ID> (6249789)
6249789

>  <Supplier> (6249789)
ChemBridge

>  <clogP> (6249789)
4.430000000000002e+000

>  <RB> (6249789)
6

>  <tPSA> (6249789)
8.175000000000000e+001

>  <Hacc> (6249789)
3

>  <Hdon> (6249789)
2

>  <LogSw> (6249789)
-6.550000000000000e+000

>  <Group> (6249789)
1

>  <Core> (6249789)
350

$$$$
9008456
  -ISIS-  03310818282D

 18 21  0  0  0  0  0  0  0  0999 V2000
    2.6042    2.4833    0.0000 C   0  0  0  0  0  0  0  0  0  0  0  0
    2.6042    1.7333    0.0000 N   0  0  3  0  0  0  0  0  0  0  0  0
    3.9042    1.7333    0.0000 C   0  0  0  0  0  0  0  0  0  0  0  0
    3.2542    2.8583    0.0000 N   0  0  0  0  0  0  0  0  0  0  0  0
    1.8917    2.7125    0.0000 N   0  0  0  0  0  0  0  0  0  0  0  0
    3.2542    1.3583    0.0000 C   0  0  0  0  0  0  0  0  0  0  0  0
    3.9042    2.4833    0.0000 C   0  0  0  0  0  0  0  0  0  0  0  0
    1.8917    1.5000    0.0000 C   0  0  0  0  0  0  0  0  0  0  0  0
    1.4542    2.1083    0.0000 C   0  0  0  0  0  0  0  0  0  0  0  0
    4.5542    1.3583    0.0000 C   0  0  0  0  0  0  0  0  0  0  0  0
    4.5542    0.6083    0.0000 O   0  0  0  0  0  0  0  0  0  0  0  0
    4.5542    2.8583    0.0000 C   0  0  0  0  0  0  0  0  0  0  0  0
    1.5917    0.8125    0.0000 C   0  0  0  0  0  0  0  0  0  0  0  0
    0.7042    2.0250    0.0000 C   0  0  0  0  0  0  0  0  0  0  0  0
    5.2042    1.7333    0.0000 C   0  0  0  0  0  0  0  0  0  0  0  0
    5.2042    2.4833    0.0000 C   0  0  0  0  0  0  0  0  0  0  0  0
    0.8417    0.7333    0.0000 C   0  0  0  0  0  0  0  0  0  0  0  0
    0.4042    1.3458    0.0000 C   0  0  0  0  0  0  0  0  0  0  0  0
  2  1  1  0  0  0  0
  3  7  1  0  0  0  0
  4  1  1  0  0  0  0
  5  1  2  0  0  0  0
  6  2  1  0  0  0  0
  7  4  2  0  0  0  0
  8  2  1  0  0  0  0
  9  5  1  0  0  0  0
 10  3  1  0  0  0  0
 11 10  2  0  0  0  0
 12  7  1  0  0  0  0
 13  8  2  0  0  0  0
 14  9  2  0  0  0  0
 15 16  1  0  0  0  0
 16 12  1  0  0  0  0
 17 13  1  0  0  0  0
 18 14  1  0  0  0  0
  9  8  1  0  0  0  0
  6  3  2  0  0  0  0
 18 17  2  0  0  0  0
 15 10  1  0  0  0  0
M  END
>  <ID> (9008456)
9008456

>  <Supplier> (9008456)
ChemBridge

>  <clogP> (9008456)
2.020000000000000e+000

>  <RB> (9008456)
0

>  <tPSA> (9008456)
4.726000000000000e+001

>  <Hacc> (9008456)
3

>  <Hdon> (9008456)
0

>  <LogSw> (9008456)
-3.766000000000000e+000

>  <Group> (9008456)
2

$$$$
6574809
  -ISIS-  03310818242D

 17 18  0  0  0  0  0  0  0  0999 V2000
    1.8625    0.3250    0.0000 C   0  0  0  0  0  0  0  0  0  0  0  0
    1.2125    0.7083    0.0000 C   0  0  0  0  0  0  0  0  0  0  0  0
    2.5792    0.7333    0.0000 N   0  0  0  0  0  0  0  0  0  0  0  0
    0.5625    0.3375    0.0000 C   0  0  0  0  0  0  0  0  0  0  0  0
   -0.0833    0.7208    0.0000 C   0  0  0  0  0  0  0  0  0  0  0  0
    1.8542   -0.5000    0.0000 O   0  0  0  0  0  0  0  0  0  0  0  0
    1.2167    1.4583    0.0000 C   0  0  0  0  0  0  0  0  0  0  0  0
   -0.0833    1.4708    0.0000 C   0  0  0  0  0  0  0  0  0  0  0  0
    0.5750    1.8375    0.0000 C   0  0  0  0  0  0  0  0  0  0  0  0
    3.2167    0.3583    0.0000 C   0  0  3  0  0  0  0  0  0  0  0  0
   -0.7375    0.3458    0.0000 C   0  0  0  0  0  0  0  0  0  0  0  0
   -0.7250    1.8458    0.0000 C   0  0  0  0  0  0  0  0  0  0  0  0
    3.8750    0.7333    0.0000 C   0  0  0  0  0  0  0  0  0  0  0  0
    3.2167   -0.3917    0.0000 C   0  0  0  0  0  0  0  0  0  0  0  0
    4.5250    0.3500    0.0000 C   0  0  0  0  0  0  0  0  0  0  0  0
   -1.3833    0.7333    0.0000 C   0  0  0  0  0  0  0  0  0  0  0  0
   -1.3833    1.4833    0.0000 C   0  0  0  0  0  0  0  0  0  0  0  0
  2  1  1  0  0  0  0
  3  1  1  0  0  0  0
  4  2  2  0  0  0  0
  5  4  1  0  0  0  0
  6  1  2  0  0  0  0
  7  2  1  0  0  0  0
  8  9  1  0  0  0  0
  9  7  2  0  0  0  0
 10  3  1  0  0  0  0
 11  5  2  0  0  0  0
 12  8  2  0  0  0  0
 13 10  1  0  0  0  0
 14 10  1  0  0  0  0
 15 13  1  0  0  0  0
 16 11  1  0  0  0  0
 17 12  1  0  0  0  0
  5  8  1  0  0  0  0
 16 17  2  0  0  0  0
M  END
>  <ID> (6574809)
6574809

>  <Supplier> (6574809)
ChemBridge

>  <clogP> (6574809)
3.400000000000000e+000

>  <RB> (6574809)
2

>  <tPSA> (6574809)
2.910000000000000e+001

>  <Hacc> (6574809)
1

>  <Hdon> (6574809)
1

>  <LogSw> (6574809)
-3.762000000000000e+000

>  <Group> (6574809)
2

$$$$
7361773
  -ISIS-  03310818262D

 23 24  0  0  0  0  0  0  0  0999 V2000
    6.4625   -3.8167    0.0000 S   0  0  3  0  0  0  0  0  0  0  0  0
    5.7417   -3.4042    0.0000 C   0  0  0  0  0  0  0  0  0  0  0  0
   11.4917   -3.4625    0.0000 S   0  0  0  0  0  0  0  0  0  0  0  0
    6.8750   -4.5375    0.0000 O   0  0  0  0  0  0  0  0  0  0  0  0
    6.0417   -4.5375    0.0000 O   0  0  0  0  0  0  0  0  0  0  0  0
   10.7417   -3.8000    0.0000 C   0  0  0  0  0  0  0  0  0  0  0  0
    7.1792   -3.4000    0.0000 N   0  0  0  0  0  0  0  0  0  0  0  0
    2.8667   -2.5750    0.0000 C   0  0  0  0  0  0  0  0  0  0  0  0
    3.5917   -2.1625    0.0000 N   0  0  0  0  0  0  0  0  0  0  0  0
   12.0417   -4.0667    0.0000 C   0  0  0  0  0  0  0  0  0  0  0  0
   10.8292   -4.6125    0.0000 C   0  0  0  0  0  0  0  0  0  0  0  0
   11.6375   -4.7792    0.0000 C   0  0  0  0  0  0  0  0  0  0  0  0
    2.8667   -3.4042    0.0000 O   0  0  0  0  0  0  0  0  0  0  0  0
    5.0167   -3.8167    0.0000 C   0  0  0  0  0  0  0  0  0  0  0  0
    5.7417   -2.5667    0.0000 C   0  0  0  0  0  0  0  0  0  0  0  0
    4.3042   -2.5750    0.0000 C   0  0  0  0  0  0  0  0  0  0  0  0
    7.8917   -3.8042    0.0000 C   0  0  0  0  0  0  0  0  0  0  0  0
    5.0167   -2.1542    0.0000 C   0  0  0  0  0  0  0  0  0  0  0  0
    4.3042   -3.4042    0.0000 C   0  0  0  0  0  0  0  0  0  0  0  0
    9.3167   -3.8042    0.0000 S   0  0  0  0  0  0  0  0  0  0  0  0
   10.0292   -3.3917    0.0000 C   0  0  0  0  0  0  0  0  0  0  0  0
    2.1542   -2.1625    0.0000 C   0  0  0  0  0  0  0  0  0  0  0  0
    8.6042   -3.3917    0.0000 C   0  0  0  0  0  0  0  0  0  0  0  0
  2  1  1  0  0  0  0
  3  6  1  0  0  0  0
  4  1  2  0  0  0  0
  5  1  2  0  0  0  0
  6 21  1  0  0  0  0
  7  1  1  0  0  0  0
  8  9  1  0  0  0  0
  9 16  1  0  0  0  0
 10  3  1  0  0  0  0
 11  6  2  0  0  0  0
 12 11  1  0  0  0  0
 13  8  2  0  0  0  0
 14  2  2  0  0  0  0
 15  2  1  0  0  0  0
 16 18  1  0  0  0  0
 17  7  1  0  0  0  0
 18 15  2  0  0  0  0
 19 14  1  0  0  0  0
 20 23  1  0  0  0  0
 21 20  1  0  0  0  0
 22  8  1  0  0  0  0
 23 17  1  0  0  0  0
 16 19  2  0  0  0  0
 12 10  2  0  0  0  0
M  END
>  <ID> (7361773)
7361773

>  <Supplier> (7361773)
ChemBridge

>  <clogP> (7361773)
2.610000000000000e+000

>  <RB> (7361773)
7

>  <tPSA> (7361773)
7.527000000000000e+001

>  <Hacc> (7361773)
4

>  <Hdon> (7361773)
2

>  <LogSw> (7361773)
-4.130000000000000e+000

>  <Group> (7361773)
3

>  <Core> (7361773)
234

$$$$
6209379
  -ISIS-  03310818232D

 32 34  0  0  0  0  0  0  0  0999 V2000
    0.5417   -1.3500    0.0000 C   0  0  0  0  0  0  0  0  0  0  0  0
    4.5542   -0.5500    0.0000 C   0  0  0  0  0  0  0  0  0  0  0  0
   -0.7500   -0.5917    0.0000 C   0  0  3  0  0  0  0  0  0  0  0  0
    5.8500   -1.3042    0.0000 C   0  0  3  0  0  0  0  0  0  0  0  0
    5.2000   -1.6792    0.0000 C   0  0  0  0  0  0  0  0  0  0  0  0
   -0.1000   -0.2167    0.0000 C   0  0  0  0  0  0  0  0  0  0  0  0
    0.5417   -0.6000    0.0000 C   0  0  0  0  0  0  0  0  0  0  0  0
    4.5542   -1.3000    0.0000 C   0  0  0  0  0  0  0  0  0  0  0  0
    1.1917   -1.7250    0.0000 N   0  0  0  0  0  0  0  0  0  0  0  0
    3.9042   -0.1750    0.0000 N   0  0  0  0  0  0  0  0  0  0  0  0
   -0.1083   -1.7250    0.0000 O   0  0  0  0  0  0  0  0  0  0  0  0
    5.2042   -0.1792    0.0000 O   0  0  0  0  0  0  0  0  0  0  0  0
   -1.1333   -1.2417    0.0000 F   0  0  0  0  0  0  0  0  0  0  0  0
   -0.7583   -1.3417    0.0000 F   0  0  0  0  0  0  0  0  0  0  0  0
   -1.4000   -0.2167    0.0000 F   0  0  0  0  0  0  0  0  0  0  0  0
    5.8542   -0.5542    0.0000 F   0  0  0  0  0  0  0  0  0  0  0  0
    6.5000   -1.6875    0.0000 F   0  0  0  0  0  0  0  0  0  0  0  0
    6.2292   -0.6542    0.0000 F   0  0  0  0  0  0  0  0  0  0  0  0
    1.8750   -1.3292    0.0000 C   0  0  0  0  0  0  0  0  0  0  0  0
    3.2542   -0.5417    0.0000 C   0  0  0  0  0  0  0  0  0  0  0  0
    3.2542   -1.3375    0.0000 C   0  0  0  0  0  0  0  0  0  0  0  0
    2.5625   -1.7292    0.0000 C   0  0  0  0  0  0  0  0  0  0  0  0
    2.5667   -0.1417    0.0000 C   0  0  0  0  0  0  0  0  0  0  0  0
    1.8792   -0.5417    0.0000 C   0  0  0  0  0  0  0  0  0  0  0  0
   -0.0958    0.5333    0.0000 C   0  0  0  0  0  0  0  0  0  0  0  0
    5.1917   -2.4292    0.0000 C   0  0  0  0  0  0  0  0  0  0  0  0
    1.2000   -0.2292    0.0000 C   0  0  0  0  0  0  0  0  0  0  0  0
    3.9000   -1.6667    0.0000 C   0  0  0  0  0  0  0  0  0  0  0  0
    3.8917   -2.4167    0.0000 C   0  0  0  0  0  0  0  0  0  0  0  0
    0.5542    0.9000    0.0000 C   0  0  0  0  0  0  0  0  0  0  0  0
    1.2000    0.5208    0.0000 C   0  0  0  0  0  0  0  0  0  0  0  0
    4.5417   -2.8042    0.0000 C   0  0  0  0  0  0  0  0  0  0  0  0
  2 10  1  0  0  0  0
  3  6  1  0  0  0  0
  4  5  1  0  0  0  0
  5  8  1  0  0  0  0
  6  7  1  0  0  0  0
  7  1  1  0  0  0  0
  8  2  1  0  0  0  0
  9  1  1  0  0  0  0
 10 20  1  0  0  0  0
 11  1  2  0  0  0  0
 12  2  2  0  0  0  0
 13  3  1  0  0  0  0
 14  3  1  0  0  0  0
 15  3  1  0  0  0  0
 16  4  1  0  0  0  0
 17  4  1  0  0  0  0
 18  4  1  0  0  0  0
 19  9  1  0  0  0  0
 20 23  1  0  0  0  0
 21 22  1  0  0  0  0
 22 19  2  0  0  0  0
 23 24  2  0  0  0  0
 24 19  1  0  0  0  0
 25  6  2  0  0  0  0
 26  5  2  0  0  0  0
 27  7  2  0  0  0  0
 28  8  2  0  0  0  0
 29 28  1  0  0  0  0
 30 31  2  0  0  0  0
 31 27  1  0  0  0  0
 32 29  2  0  0  0  0
 20 21  2  0  0  0  0
 30 25  1  0  0  0  0
 32 26  1  0  0  0  0
M  END
>  <ID> (6209379)
6209379

>  <Supplier> (6209379)
ChemBridge

>  <clogP> (6209379)
3.210000000000000e+000

>  <RB> (6209379)
4

>  <tPSA> (6209379)
5.820000000000000e+001

>  <Hacc> (6209379)
2

>  <Hdon> (6209379)
2

>  <LogSw> (6209379)
-5.239000000000003e+000

>  <Group> (6209379)
2

>  <Core> (6209379)
157

$$$$
7361776
  -ISIS-  03310818262D

 29 31  0  0  0  0  0  0  0  0999 V2000
    6.0250   -7.3792    0.0000 C   0  0  0  0  0  0  0  0  0  0  0  0
    7.4417   -8.2000    0.0000 C   0  0  0  0  0  0  0  0  0  0  0  0
    7.4417   -7.3792    0.0000 N   0  0  3  0  0  0  0  0  0  0  0  0
    6.7375   -8.6000    0.0000 N   0  0  3  0  0  0  0  0  0  0  0  0
    6.7375   -6.9542    0.0000 C   0  0  0  0  0  0  0  0  0  0  0  0
    6.0250   -8.2000    0.0000 C   0  0  0  0  0  0  0  0  0  0  0  0
    4.9042   -4.8417    0.0000 C   0  0  0  0  0  0  0  0  0  0  0  0
    4.4292   -4.1667    0.0000 C   0  0  0  0  0  0  0  0  0  0  0  0
    5.3042   -6.9667    0.0000 C   0  0  0  0  0  0  0  0  0  0  0  0
    4.6417   -5.6375    0.0000 O   0  0  0  0  0  0  0  0  0  0  0  0
    5.3125   -6.1292    0.0000 C   0  0  0  0  0  0  0  0  0  0  0  0
    4.7750   -3.4250    0.0000 C   0  0  0  0  0  0  0  0  0  0  0  0
    5.7417   -4.8542    0.0000 C   0  0  0  0  0  0  0  0  0  0  0  0
    4.3000   -2.7542    0.0000 C   0  0  0  0  0  0  0  0  0  0  0  0
    4.6417   -2.0000    0.0000 C   0  0  0  0  0  0  0  0  0  0  0  0
    8.1417   -8.6125    0.0000 S   0  0  0  0  0  0  0  0  0  0  0  0
    6.0042   -5.6375    0.0000 C   0  0  0  0  0  0  0  0  0  0  0  0
    5.3042   -8.6125    0.0000 O   0  0  0  0  0  0  0  0  0  0  0  0
    6.7375   -6.1250    0.0000 O   0  0  0  0  0  0  0  0  0  0  0  0
    3.6167   -4.2542    0.0000 C   0  0  0  0  0  0  0  0  0  0  0  0
    4.1625   -1.3292    0.0000 O   0  0  0  0  0  0  0  0  0  0  0  0
    3.4792   -2.8375    0.0000 C   0  0  0  0  0  0  0  0  0  0  0  0
    6.7375   -9.4042    0.0000 C   0  0  0  0  0  0  0  0  0  0  0  0
    8.1542   -6.9667    0.0000 C   0  0  0  0  0  0  0  0  0  0  0  0
    3.1417   -3.5875    0.0000 C   0  0  0  0  0  0  0  0  0  0  0  0
    5.4625   -1.9167    0.0000 O   0  0  0  0  0  0  0  0  0  0  0  0
    3.2750   -5.0042    0.0000 Cl  0  0  0  0  0  0  0  0  0  0  0  0
    8.1542   -6.1250    0.0000 C   0  0  0  0  0  0  0  0  0  0  0  0
    6.0292   -9.8250    0.0000 C   0  0  0  0  0  0  0  0  0  0  0  0
  2  4  1  0  0  0  0
  3  5  1  0  0  0  0
  4  6  1  0  0  0  0
  5  1  1  0  0  0  0
  6  1  1  0  0  0  0
  7 10  1  0  0  0  0
  8  7  1  0  0  0  0
  9  1  2  0  0  0  0
 10 11  1  0  0  0  0
 11  9  1  0  0  0  0
 12  8  2  0  0  0  0
 13 17  1  0  0  0  0
 14 12  1  0  0  0  0
 15 14  1  0  0  0  0
 16  2  2  0  0  0  0
 17 11  2  0  0  0  0
 18  6  2  0  0  0  0
 19  5  2  0  0  0  0
 20  8  1  0  0  0  0
 21 15  2  0  0  0  0
 22 25  1  0  0  0  0
 23  4  1  0  0  0  0
 24  3  1  0  0  0  0
 25 20  2  0  0  0  0
 26 15  1  0  0  0  0
 27 20  1  0  0  0  0
 28 24  1  0  0  0  0
 29 23  1  0  0  0  0
  3  2  1  0  0  0  0
  7 13  2  0  0  0  0
 22 14  2  0  0  0  0
M  END
>  <ID> (7361776)
7361776

>  <Supplier> (7361776)
ChemBridge

>  <clogP> (7361776)
4.916000000000000e+000

>  <RB> (7361776)
3

>  <tPSA> (7361776)
9.106000000000000e+001

>  <Hacc> (7361776)
5

>  <Hdon> (7361776)
1

>  <LogSw> (7361776)
-6.553999999999999e+000

>  <Group> (7361776)
1

>  <Core> (7361776)
007

$$$$
6402626
  -ISIS-  03310818232D

 32 35  0  0  0  0  0  0  0  0999 V2000
    5.3792   -2.6250    0.0000 N   0  0  3  0  0  0  0  0  0  0  0  0
    4.6542   -3.0375    0.0000 C   0  0  3  0  0  0  0  0  0  0  0  0
    3.9417   -2.6250    0.0000 C   0  0  0  0  0  0  0  0  0  0  0  0
    6.0917   -3.0417    0.0000 C   0  0  0  0  0  0  0  0  0  0  0  0
    3.2250   -5.5042    0.0000 N   0  3  0  0  0  0  0  0  0  0  0  0
    4.6542   -3.8625    0.0000 C   0  0  0  0  0  0  0  0  0  0  0  0
    3.9417   -1.7917    0.0000 C   0  0  0  0  0  0  0  0  0  0  0  0
    3.2292   -3.0292    0.0000 C   0  0  0  0  0  0  0  0  0  0  0  0
    5.3792   -1.7917    0.0000 C   0  0  0  0  0  0  0  0  0  0  0  0
    3.9375   -5.0917    0.0000 C   0  0  0  0  0  0  0  0  0  0  0  0
    3.9417   -4.2667    0.0000 C   0  0  0  0  0  0  0  0  0  0  0  0
    2.5167   -2.6167    0.0000 C   0  0  0  0  0  0  0  0  0  0  0  0
    3.2292   -1.3792    0.0000 C   0  0  0  0  0  0  0  0  0  0  0  0
    2.5167   -1.7917    0.0000 C   0  0  0  0  0  0  0  0  0  0  0  0
    6.8125   -2.6292    0.0000 C   0  0  0  0  0  0  0  0  0  0  0  0
    2.5042   -5.0917    0.0000 O   0  5  0  0  0  0  0  0  0  0  0  0
    3.2167   -6.3292    0.0000 O   0  0  0  0  0  0  0  0  0  0  0  0
    6.0917   -3.8667    0.0000 O   0  0  0  0  0  0  0  0  0  0  0  0
    4.6625   -1.3667    0.0000 C   0  0  0  0  0  0  0  0  0  0  0  0
    6.8042   -1.8042    0.0000 C   0  0  0  0  0  0  0  0  0  0  0  0
    7.5167   -3.0417    0.0000 C   0  0  0  0  0  0  0  0  0  0  0  0
    8.2417   -1.8125    0.0000 C   0  0  0  0  0  0  0  0  0  0  0  0
    1.8000   -3.0292    0.0000 O   0  0  0  0  0  0  0  0  0  0  0  0
    1.8042   -1.3792    0.0000 O   0  0  0  0  0  0  0  0  0  0  0  0
    8.2375   -2.6375    0.0000 C   0  0  0  0  0  0  0  0  0  0  0  0
    7.5167   -1.3917    0.0000 C   0  0  0  0  0  0  0  0  0  0  0  0
    8.9542   -1.4000    0.0000 F   0  0  0  0  0  0  0  0  0  0  0  0
    5.3667   -4.2667    0.0000 C   0  0  0  0  0  0  0  0  0  0  0  0
    4.6542   -5.5042    0.0000 C   0  0  0  0  0  0  0  0  0  0  0  0
    5.3667   -5.0917    0.0000 C   0  0  0  0  0  0  0  0  0  0  0  0
    1.8042   -0.5542    0.0000 C   0  0  0  0  0  0  0  0  0  0  0  0
    1.0875   -2.6167    0.0000 C   0  0  0  0  0  0  0  0  0  0  0  0
  2  1  1  0  0  0  0
  3  2  1  0  0  0  0
  4  1  1  0  0  0  0
  5 10  1  0  0  0  0
  6  2  1  0  0  0  0
  7 19  1  0  0  0  0
  8  3  2  0  0  0  0
  9  1  1  0  0  0  0
 10 11  1  0  0  0  0
 11  6  2  0  0  0  0
 12  8  1  0  0  0  0
 13  7  2  0  0  0  0
 14 13  1  0  0  0  0
 15  4  1  0  0  0  0
 16  5  1  0  0  0  0
 17  5  2  0  0  0  0
 18  4  2  0  0  0  0
 19  9  1  0  0  0  0
 20 15  1  0  0  0  0
 21 15  2  0  0  0  0
 22 25  2  0  0  0  0
 23 12  1  0  0  0  0
 24 14  1  0  0  0  0
 25 21  1  0  0  0  0
 26 20  2  0  0  0  0
 27 22  1  0  0  0  0
 28  6  1  0  0  0  0
 29 30  1  0  0  0  0
 30 28  2  0  0  0  0
 31 24  1  0  0  0  0
 32 23  1  0  0  0  0
  3  7  1  0  0  0  0
 22 26  1  0  0  0  0
 12 14  2  0  0  0  0
 29 10  2  0  0  0  0
M  CHG  2   5   1  16  -1
M  END
>  <ID> (6402626)
6402626

>  <Supplier> (6402626)
ChemBridge

>  <clogP> (6402626)
4.250000000000000e+000

>  <RB> (6402626)
2

>  <tPSA> (6402626)
8.191000000000000e+001

>  <Hacc> (6402626)
5

>  <Hdon> (6402626)
0

>  <LogSw> (6402626)
-6.401000000000002e+000

>  <Group> (6402626)
3

>  <Core> (6402626)
303

$$$$
6402625
  -ISIS-  03310818232D

 23 24  0  0  0  0  0  0  0  0999 V2000
    6.2167   -4.4667    0.0000 S   0  0  3  0  0  0  0  0  0  0  0  0
    6.2167   -3.6417    0.0000 N   0  0  3  0  0  0  0  0  0  0  0  0
    5.5042   -3.2292    0.0000 C   0  0  0  0  0  0  0  0  0  0  0  0
    6.9292   -3.2292    0.0000 C   0  0  0  0  0  0  0  0  0  0  0  0
    5.5042   -2.4000    0.0000 C   0  0  0  0  0  0  0  0  0  0  0  0
    7.6417   -3.6417    0.0000 C   0  0  0  0  0  0  0  0  0  0  0  0
    7.0417   -4.4667    0.0000 O   0  0  0  0  0  0  0  0  0  0  0  0
    6.8042   -5.0500    0.0000 O   0  0  0  0  0  0  0  0  0  0  0  0
    4.7917   -3.6542    0.0000 C   0  0  0  0  0  0  0  0  0  0  0  0
    9.8000   -3.2250    0.0000 C   0  0  0  0  0  0  0  0  0  0  0  0
   10.4792   -3.7125    0.0000 O   0  0  0  0  0  0  0  0  0  0  0  0
    8.3625   -3.2292    0.0000 N   0  0  0  0  0  0  0  0  0  0  0  0
    4.7917   -1.9875    0.0000 C   0  0  0  0  0  0  0  0  0  0  0  0
   10.0625   -2.4292    0.0000 C   0  0  0  0  0  0  0  0  0  0  0  0
   11.1542   -3.2250    0.0000 C   0  0  0  0  0  0  0  0  0  0  0  0
    7.6417   -4.4667    0.0000 O   0  0  0  0  0  0  0  0  0  0  0  0
   10.8917   -2.4292    0.0000 C   0  0  0  0  0  0  0  0  0  0  0  0
    5.5042   -4.8750    0.0000 C   0  0  0  0  0  0  0  0  0  0  0  0
    9.0792   -3.6417    0.0000 C   0  0  0  0  0  0  0  0  0  0  0  0
    4.0667   -2.4000    0.0000 C   0  0  0  0  0  0  0  0  0  0  0  0
    4.0667   -3.2292    0.0000 C   0  0  0  0  0  0  0  0  0  0  0  0
    3.3625   -1.9792    0.0000 Cl  0  0  0  0  0  0  0  0  0  0  0  0
    6.2167   -1.9875    0.0000 C   0  0  0  0  0  0  0  0  0  0  0  0
  2  1  1  0  0  0  0
  3  2  1  0  0  0  0
  4  2  1  0  0  0  0
  5  3  2  0  0  0  0
  6  4  1  0  0  0  0
  7  1  2  0  0  0  0
  8  1  2  0  0  0  0
  9  3  1  0  0  0  0
 10 19  1  0  0  0  0
 11 10  1  0  0  0  0
 12  6  1  0  0  0  0
 13  5  1  0  0  0  0
 14 10  2  0  0  0  0
 15 11  1  0  0  0  0
 16  6  2  0  0  0  0
 17 14  1  0  0  0  0
 18  1  1  0  0  0  0
 19 12  1  0  0  0  0
 20 21  1  0  0  0  0
 21  9  2  0  0  0  0
 22 20  1  0  0  0  0
 23  5  1  0  0  0  0
 13 20  2  0  0  0  0
 15 17  2  0  0  0  0
M  END
>  <ID> (6402625)
6402625

>  <Supplier> (6402625)
ChemBridge

>  <clogP> (6402625)
2.390000000000000e+000

>  <RB> (6402625)
5

>  <tPSA> (6402625)
7.962000000000001e+001

>  <Hacc> (6402625)
4

>  <Hdon> (6402625)
1

>  <LogSw> (6402625)
-3.843000000000000e+000

>  <Group> (6402625)
3

>  <Core> (6402625)
084

$$$$
6574801
  -ISIS-  03310818242D

 21 22  0  0  0  0  0  0  0  0999 V2000
    5.8250    0.3750    0.0000 N   0  3  0  0  0  0  0  0  0  0  0  0
    5.1667    0.0083    0.0000 C   0  0  0  0  0  0  0  0  0  0  0  0
    4.5167    0.3833    0.0000 C   0  0  0  0  0  0  0  0  0  0  0  0
    2.5042   -0.0167    0.0000 C   0  0  0  0  0  0  0  0  0  0  0  0
    6.4667   -0.0042    0.0000 O   0  5  0  0  0  0  0  0  0  0  0  0
    3.2250    0.3875    0.0000 N   0  0  0  0  0  0  0  0  0  0  0  0
    5.8292    1.1333    0.0000 O   0  0  0  0  0  0  0  0  0  0  0  0
    3.8667    0.0125    0.0000 C   0  0  0  0  0  0  0  0  0  0  0  0
    1.2042   -0.0042    0.0000 O   0  0  0  0  0  0  0  0  0  0  0  0
    0.5625    0.3750    0.0000 C   0  0  0  0  0  0  0  0  0  0  0  0
    2.5000   -0.8417    0.0000 O   0  0  0  0  0  0  0  0  0  0  0  0
   -0.0958    0.0083    0.0000 C   0  0  0  0  0  0  0  0  0  0  0  0
    1.8542    0.3625    0.0000 C   0  0  0  0  0  0  0  0  0  0  0  0
   -0.1000   -0.7417    0.0000 Cl  0  0  0  0  0  0  0  0  0  0  0  0
    5.1667   -0.7417    0.0000 C   0  0  0  0  0  0  0  0  0  0  0  0
    4.5125   -1.1167    0.0000 C   0  0  0  0  0  0  0  0  0  0  0  0
    3.8667   -0.7375    0.0000 C   0  0  0  0  0  0  0  0  0  0  0  0
    0.5667    1.1250    0.0000 C   0  0  0  0  0  0  0  0  0  0  0  0
   -0.7375    0.3958    0.0000 C   0  0  0  0  0  0  0  0  0  0  0  0
   -0.7333    1.1458    0.0000 C   0  0  0  0  0  0  0  0  0  0  0  0
   -0.0750    1.5083    0.0000 C   0  0  0  0  0  0  0  0  0  0  0  0
  2  1  1  0  0  0  0
  3  2  2  0  0  0  0
  4  6  1  0  0  0  0
  5  1  1  0  0  0  0
  6  8  1  0  0  0  0
  7  1  2  0  0  0  0
  8  3  1  0  0  0  0
  9 13  1  0  0  0  0
 10  9  1  0  0  0  0
 11  4  2  0  0  0  0
 12 10  2  0  0  0  0
 13  4  1  0  0  0  0
 14 12  1  0  0  0  0
 15  2  1  0  0  0  0
 16 15  2  0  0  0  0
 17 16  1  0  0  0  0
 18 10  1  0  0  0  0
 19 12  1  0  0  0  0
 20 21  1  0  0  0  0
 21 18  2  0  0  0  0
  8 17  2  0  0  0  0
 19 20  2  0  0  0  0
M  CHG  2   1   1   5  -1
M  END
>  <ID> (6574801)
6574801

>  <Supplier> (6574801)
ChemBridge

>  <clogP> (6574801)
3.590000000000000e+000

>  <RB> (6574801)
4

>  <tPSA> (6574801)
8.147000000000000e+001

>  <Hacc> (6574801)
4

>  <Hdon> (6574801)
1

>  <LogSw> (6574801)
-4.893000000000000e+000

>  <Group> (6574801)
1

>  <Core> (6574801)
315

$$$$
6402628
  -ISIS-  03310818232D

 22 23  0  0  0  0  0  0  0  0999 V2000
    5.7417   -4.4542    0.0000 S   0  0  3  0  0  0  0  0  0  0  0  0
    5.7417   -3.6292    0.0000 N   0  0  3  0  0  0  0  0  0  0  0  0
    6.4542   -3.2167    0.0000 C   0  0  0  0  0  0  0  0  0  0  0  0
    7.1667   -3.6292    0.0000 C   0  0  0  0  0  0  0  0  0  0  0  0
    7.8792   -3.2167    0.0000 N   0  0  3  0  0  0  0  0  0  0  0  0
    5.0250   -3.2125    0.0000 C   0  0  0  0  0  0  0  0  0  0  0  0
    6.3250   -5.0375    0.0000 O   0  0  0  0  0  0  0  0  0  0  0  0
    6.5667   -4.4417    0.0000 O   0  0  0  0  0  0  0  0  0  0  0  0
    7.1667   -4.4542    0.0000 O   0  0  0  0  0  0  0  0  0  0  0  0
    8.5917   -3.6167    0.0000 C   0  0  0  0  0  0  0  0  0  0  0  0
    7.8667   -2.3917    0.0000 C   0  0  0  0  0  0  0  0  0  0  0  0
    5.0292   -2.3875    0.0000 C   0  0  0  0  0  0  0  0  0  0  0  0
    5.0250   -4.8625    0.0000 C   0  0  0  0  0  0  0  0  0  0  0  0
    8.5792   -1.9667    0.0000 C   0  0  0  0  0  0  0  0  0  0  0  0
    9.3042   -3.2042    0.0000 C   0  0  0  0  0  0  0  0  0  0  0  0
    9.3000   -2.3792    0.0000 C   0  0  3  0  0  0  0  0  0  0  0  0
    4.3125   -3.6375    0.0000 C   0  0  0  0  0  0  0  0  0  0  0  0
    5.7417   -1.9750    0.0000 C   0  0  0  0  0  0  0  0  0  0  0  0
    4.3167   -1.9750    0.0000 C   0  0  0  0  0  0  0  0  0  0  0  0
   10.0125   -1.9667    0.0000 C   0  0  0  0  0  0  0  0  0  0  0  0
    3.5917   -3.2125    0.0000 C   0  0  0  0  0  0  0  0  0  0  0  0
    3.5917   -2.3875    0.0000 C   0  0  0  0  0  0  0  0  0  0  0  0
  2  1  1  0  0  0  0
  3  2  1  0  0  0  0
  4  3  1  0  0  0  0
  5  4  1  0  0  0  0
  6  2  1  0  0  0  0
  7  1  2  0  0  0  0
  8  1  2  0  0  0  0
  9  4  2  0  0  0  0
 10  5  1  0  0  0  0
 11  5  1  0  0  0  0
 12  6  2  0  0  0  0
 13  1  1  0  0  0  0
 14 11  1  0  0  0  0
 15 10  1  0  0  0  0
 16 14  1  0  0  0  0
 17  6  1  0  0  0  0
 18 12  1  0  0  0  0
 19 12  1  0  0  0  0
 20 16  1  0  0  0  0
 21 17  2  0  0  0  0
 22 21  1  0  0  0  0
 22 19  2  0  0  0  0
 15 16  1  0  0  0  0
M  END
>  <ID> (6402628)
6402628

>  <Supplier> (6402628)
ChemBridge

>  <clogP> (6402628)
2.310000000000000e+000

>  <RB> (6402628)
3

>  <tPSA> (6402628)
5.769000000000000e+001

>  <Hacc> (6402628)
3

>  <Hdon> (6402628)
0

>  <LogSw> (6402628)
-3.539000000000000e+000

>  <Group> (6402628)
3

>  <Core> (6402628)
084

$$$$
5396751
  -ISIS-  03310818222D

 26 28  0  0  0  0  0  0  0  0999 V2000
    9.1000   -2.4042    0.0000 N   0  0  3  0  0  0  0  0  0  0  0  0
    9.5042   -3.1167    0.0000 C   0  0  0  0  0  0  0  0  0  0  0  0
    8.2750   -2.4000    0.0000 C   0  0  0  0  0  0  0  0  0  0  0  0
    7.8625   -3.1167    0.0000 C   0  0  0  0  0  0  0  0  0  0  0  0
    9.0917   -3.8292    0.0000 N   0  0  0  0  0  0  0  0  0  0  0  0
    8.2667   -3.8292    0.0000 C   0  0  0  0  0  0  0  0  0  0  0  0
    9.5667   -1.5917    0.0000 C   0  0  0  0  0  0  0  0  0  0  0  0
    7.0375   -3.1125    0.0000 C   0  0  0  0  0  0  0  0  0  0  0  0
    9.0917   -0.7792    0.0000 C   0  0  0  0  0  0  0  0  0  0  0  0
   10.3292   -3.1167    0.0000 O   0  0  0  0  0  0  0  0  0  0  0  0
    7.8667   -1.6875    0.0000 O   0  0  0  0  0  0  0  0  0  0  0  0
    6.6292   -2.3917    0.0000 N   0  0  0  0  0  0  0  0  0  0  0  0
    7.8542   -4.5500    0.0000 O   0  0  0  0  0  0  0  0  0  0  0  0
    5.5042   -3.0292    0.0000 C   0  0  0  0  0  0  0  0  0  0  0  0
    5.8792   -2.3917    0.0000 C   0  0  0  0  0  0  0  0  0  0  0  0
    9.5750    0.0250    0.0000 C   0  0  0  0  0  0  0  0  0  0  0  0
    4.7625   -3.0042    0.0000 C   0  0  0  0  0  0  0  0  0  0  0  0
   10.5042   -1.5917    0.0000 C   0  0  0  0  0  0  0  0  0  0  0  0
    4.3667   -3.6167    0.0000 Cl  0  0  0  0  0  0  0  0  0  0  0  0
    9.1042    0.8375    0.0000 O   0  0  0  0  0  0  0  0  0  0  0  0
   10.9792   -0.7875    0.0000 C   0  0  0  0  0  0  0  0  0  0  0  0
    4.7792   -1.7375    0.0000 C   0  0  0  0  0  0  0  0  0  0  0  0
    5.5292   -1.7625    0.0000 C   0  0  0  0  0  0  0  0  0  0  0  0
   10.5042    0.0208    0.0000 C   0  0  0  0  0  0  0  0  0  0  0  0
    4.4125   -2.3792    0.0000 C   0  0  0  0  0  0  0  0  0  0  0  0
    9.5667    1.6375    0.0000 C   0  0  0  0  0  0  0  0  0  0  0  0
  2  1  1  0  0  0  0
  3  1  1  0  0  0  0
  4  3  1  0  0  0  0
  5  2  1  0  0  0  0
  6  4  1  0  0  0  0
  7  1  1  0  0  0  0
  8  4  2  0  0  0  0
  9  7  1  0  0  0  0
 10  2  2  0  0  0  0
 11  3  2  0  0  0  0
 12  8  1  0  0  0  0
 13  6  2  0  0  0  0
 14 15  1  0  0  0  0
 15 12  1  0  0  0  0
 16  9  2  0  0  0  0
 17 14  2  0  0  0  0
 18  7  2  0  0  0  0
 19 17  1  0  0  0  0
 20 16  1  0  0  0  0
 21 18  1  0  0  0  0
 22 23  1  0  0  0  0
 23 15  2  0  0  0  0
 24 21  2  0  0  0  0
 25 22  2  0  0  0  0
 26 20  1  0  0  0  0
  5  6  1  0  0  0  0
 24 16  1  0  0  0  0
 17 25  1  0  0  0  0
M  END
>  <ID> (5396751)
5396751

>  <Supplier> (5396751)
ChemBridge

>  <clogP> (5396751)
4.240000000000000e+000

>  <RB> (5396751)
3

>  <tPSA> (5396751)
8.774000000000000e+001

>  <Hacc> (5396751)
4

>  <Hdon> (5396751)
2

>  <LogSw> (5396751)
-5.532000000000000e+000

>  <Group> (5396751)
3

>  <Core> (5396751)
192

$$$$
5396753
  -ISIS-  03310818222D

 28 31  0  0  0  0  0  0  0  0999 V2000
    9.6542   -2.2875    0.0000 N   0  0  3  0  0  0  0  0  0  0  0  0
   10.0417   -3.0167    0.0000 C   0  0  0  0  0  0  0  0  0  0  0  0
    8.8292   -2.2625    0.0000 C   0  0  0  0  0  0  0  0  0  0  0  0
    8.3917   -2.9667    0.0000 C   0  0  0  0  0  0  0  0  0  0  0  0
    9.6042   -3.7167    0.0000 N   0  0  0  0  0  0  0  0  0  0  0  0
    8.7875   -3.6917    0.0000 C   0  0  0  0  0  0  0  0  0  0  0  0
    7.5542   -2.9417    0.0000 C   0  0  0  0  0  0  0  0  0  0  0  0
   10.1417   -1.4917    0.0000 C   0  0  0  0  0  0  0  0  0  0  0  0
   10.8792   -3.0292    0.0000 S   0  0  0  0  0  0  0  0  0  0  0  0
    8.4375   -1.5250    0.0000 O   0  0  0  0  0  0  0  0  0  0  0  0
    4.8667   -3.0375    0.0000 C   0  0  0  0  0  0  0  0  0  0  0  0
    7.1625   -2.2167    0.0000 N   0  0  0  0  0  0  0  0  0  0  0  0
    8.3500   -4.3917    0.0000 O   0  0  0  0  0  0  0  0  0  0  0  0
    9.7125   -0.6750    0.0000 C   0  0  0  0  0  0  0  0  0  0  0  0
    4.3917   -2.2417    0.0000 C   0  0  0  0  0  0  0  0  0  0  0  0
    5.7917   -3.0292    0.0000 C   0  0  0  0  0  0  0  0  0  0  0  0
    6.2417   -2.2167    0.0000 C   0  0  0  0  0  0  0  0  0  0  0  0
    4.8500   -1.4417    0.0000 C   0  0  0  0  0  0  0  0  0  0  0  0
    5.7667   -1.4292    0.0000 C   0  0  0  0  0  0  0  0  0  0  0  0
    8.7875   -0.6292    0.0000 O   0  0  0  0  0  0  0  0  0  0  0  0
   11.0917   -1.5375    0.0000 C   0  0  0  0  0  0  0  0  0  0  0  0
    4.2667   -3.7167    0.0000 C   0  0  0  0  0  0  0  0  0  0  0  0
    3.4250   -3.3917    0.0000 C   0  0  0  0  0  0  0  0  0  0  0  0
    3.4917   -2.4542    0.0000 C   0  0  0  0  0  0  0  0  0  0  0  0
   10.2167    0.1208    0.0000 C   0  0  0  0  0  0  0  0  0  0  0  0
    8.3542    0.1750    0.0000 C   0  0  0  0  0  0  0  0  0  0  0  0
   11.5917   -0.7500    0.0000 C   0  0  0  0  0  0  0  0  0  0  0  0
   11.1542    0.0750    0.0000 C   0  0  0  0  0  0  0  0  0  0  0  0
  2  1  1  0  0  0  0
  3  1  1  0  0  0  0
  4  3  1  0  0  0  0
  5  2  1  0  0  0  0
  6  4  1  0  0  0  0
  7  4  2  0  0  0  0
  8  1  1  0  0  0  0
  9  2  2  0  0  0  0
 10  3  2  0  0  0  0
 11 16  2  0  0  0  0
 12  7  1  0  0  0  0
 13  6  2  0  0  0  0
 14  8  1  0  0  0  0
 15 18  2  0  0  0  0
 16 17  1  0  0  0  0
 17 12  1  0  0  0  0
 18 19  1  0  0  0  0
 19 17  2  0  0  0  0
 20 14  1  0  0  0  0
 21  8  2  0  0  0  0
 22 11  1  0  0  0  0
 23 22  1  0  0  0  0
 24 15  1  0  0  0  0
 25 14  2  0  0  0  0
 26 20  1  0  0  0  0
 27 21  1  0  0  0  0
 28 27  2  0  0  0  0
  5  6  1  0  0  0  0
 28 25  1  0  0  0  0
 11 15  1  0  0  0  0
 24 23  1  0  0  0  0
M  END
>  <ID> (5396753)
5396753

>  <Supplier> (5396753)
ChemBridge

>  <clogP> (5396753)
4.230000000000000e+000

>  <RB> (5396753)
3

>  <tPSA> (5396753)
7.066999999999999e+001

>  <Hacc> (5396753)
3

>  <Hdon> (5396753)
2

>  <LogSw> (5396753)
-5.681000000000000e+000

>  <Group> (5396753)
3

>  <Core> (5396753)
191

$$$$
6375325
  -ISIS-  03310818232D

 21 23  0  0  0  0  0  0  0  0999 V2000
    5.3125   -3.6542    0.0000 C   0  0  0  0  0  0  0  0  0  0  0  0
    5.9875   -3.9667    0.0000 C   0  0  0  0  0  0  0  0  0  0  0  0
    7.1917   -4.1042    0.0000 N   0  0  3  0  0  0  0  0  0  0  0  0
    4.6542   -4.0167    0.0000 C   0  0  0  0  0  0  0  0  0  0  0  0
    6.6417   -3.6000    0.0000 C   0  0  0  0  0  0  0  0  0  0  0  0
    6.8792   -4.7917    0.0000 C   0  0  0  0  0  0  0  0  0  0  0  0
    4.1042   -3.5125    0.0000 N   0  0  3  0  0  0  0  0  0  0  0  0
    6.1375   -4.7000    0.0000 S   0  0  0  0  0  0  0  0  0  0  0  0
    5.1542   -2.9167    0.0000 C   0  0  0  0  0  0  0  0  0  0  0  0
    4.4167   -2.8292    0.0000 C   0  0  0  0  0  0  0  0  0  0  0  0
    7.2417   -5.4417    0.0000 S   0  0  0  0  0  0  0  0  0  0  0  0
    4.1292   -2.1542    0.0000 C   0  0  0  0  0  0  0  0  0  0  0  0
    4.5667   -4.7625    0.0000 O   0  0  0  0  0  0  0  0  0  0  0  0
    6.7292   -2.8542    0.0000 O   0  0  0  0  0  0  0  0  0  0  0  0
    5.6042   -2.3292    0.0000 C   0  0  0  0  0  0  0  0  0  0  0  0
    7.9375   -3.9667    0.0000 N   0  0  0  0  0  0  0  0  0  0  0  0
    5.3125   -1.6417    0.0000 C   0  0  0  0  0  0  0  0  0  0  0  0
    3.3750   -3.6542    0.0000 C   0  0  0  0  0  0  0  0  0  0  0  0
    4.5667   -1.5542    0.0000 C   0  0  0  0  0  0  0  0  0  0  0  0
    5.7625   -1.0417    0.0000 Br  0  0  0  0  0  0  0  0  0  0  0  0
    2.8792   -3.0917    0.0000 C   0  0  0  0  0  0  0  0  0  0  0  0
  2  1  2  0  0  0  0
  3  5  1  0  0  0  0
  4  1  1  0  0  0  0
  5  2  1  0  0  0  0
  6  8  1  0  0  0  0
  7  4  1  0  0  0  0
  8  2  1  0  0  0  0
  9  1  1  0  0  0  0
 10  9  2  0  0  0  0
 11  6  2  0  0  0  0
 12 10  1  0  0  0  0
 13  4  2  0  0  0  0
 14  5  2  0  0  0  0
 15  9  1  0  0  0  0
 16  3  1  0  0  0  0
 17 15  2  0  0  0  0
 18  7  1  0  0  0  0
 19 17  1  0  0  0  0
 20 17  1  0  0  0  0
 21 18  1  0  0  0  0
 10  7  1  0  0  0  0
  3  6  1  0  0  0  0
 19 12  2  0  0  0  0
M  END
>  <ID> (6375325)
6375325

>  <Supplier> (6375325)
ChemBridge

>  <clogP> (6375325)
3.860000000000000e+000

>  <RB> (6375325)
0

>  <tPSA> (6375325)
6.663999999999999e+001

>  <Hacc> (6375325)
2

>  <Hdon> (6375325)
1

>  <LogSw> (6375325)
-5.298000000000000e+000

>  <Group> (6375325)
1

>  <Core> (6375325)
546

$$$$
9093853
  -ISIS-  03310818292D

 18 19  0  0  0  0  0  0  0  0999 V2000
    0.9167   -1.3625    0.0000 C   0  0  0  0  0  0  0  0  0  0  0  0
    0.4000   -0.5250    0.0000 C   0  0  0  0  0  0  0  0  0  0  0  0
    2.1292   -2.4375    0.0000 N   0  0  0  0  0  0  0  0  0  0  0  0
   -0.6000   -0.5250    0.0000 N   0  0  0  0  0  0  0  0  0  0  0  0
    1.3042   -2.9375    0.0000 O   0  0  0  0  0  0  0  0  0  0  0  0
    0.5542   -2.2917    0.0000 C   0  0  0  0  0  0  0  0  0  0  0  0
    1.9042   -1.4292    0.0000 C   0  0  0  0  0  0  0  0  0  0  0  0
   -1.1000    0.3583    0.0000 C   0  0  0  0  0  0  0  0  0  0  0  0
   -2.0958    0.3583    0.0000 C   0  0  0  0  0  0  0  0  0  0  0  0
   -2.5958    1.2333    0.0000 C   0  0  0  0  0  0  0  0  0  0  0  0
    0.9042    0.3708    0.0000 O   0  0  0  0  0  0  0  0  0  0  0  0
   -0.6000    1.2083    0.0000 C   0  0  0  0  0  0  0  0  0  0  0  0
   -2.0833    2.0833    0.0000 C   0  0  0  0  0  0  0  0  0  0  0  0
   -2.5958   -0.5125    0.0000 F   0  0  0  0  0  0  0  0  0  0  0  0
   -1.0750    2.0833    0.0000 C   0  0  0  0  0  0  0  0  0  0  0  0
   -2.5833    2.9458    0.0000 Br  0  0  0  0  0  0  0  0  0  0  0  0
   -0.2583   -2.9125    0.0000 C   0  0  0  0  0  0  0  0  0  0  0  0
    2.5917   -0.6917    0.0000 C   0  0  0  0  0  0  0  0  0  0  0  0
  2  1  1  0  0  0  0
  3  7  2  0  0  0  0
  4  2  1  0  0  0  0
  5  6  1  0  0  0  0
  6  1  2  0  0  0  0
  7  1  1  0  0  0  0
  8  4  1  0  0  0  0
  9  8  1  0  0  0  0
 10  9  2  0  0  0  0
 11  2  2  0  0  0  0
 12  8  2  0  0  0  0
 13 15  2  0  0  0  0
 14  9  1  0  0  0  0
 15 12  1  0  0  0  0
 16 13  1  0  0  0  0
 17  6  1  0  0  0  0
 18  7  1  0  0  0  0
  5  3  1  0  0  0  0
 10 13  1  0  0  0  0
M  END
>  <ID> (9093853)
9093853

>  <Supplier> (9093853)
ChemBridge

>  <clogP> (9093853)
1.742000000000000e+000

>  <RB> (9093853)
2

>  <tPSA> (9093853)
5.513000000000000e+001

>  <Hacc> (9093853)
3

>  <Hdon> (9093853)
1

>  <LogSw> (9093853)
-2.971000000000000e+000

>  <Group> (9093853)
2

$$$$
5116097
  -ISIS-  03310818212D

 23 25  0  0  0  0  0  0  0  0999 V2000
   -0.2458   -0.0292    0.0000 P   0  0  3  0  0  0  0  0  0  0  0  0
   -0.2458    1.1708    0.0000 C   0  0  0  0  0  0  0  0  0  0  0  0
   -1.4208   -0.0292    0.0000 O   0  0  0  0  0  0  0  0  0  0  0  0
    0.9542   -0.0292    0.0000 C   0  0  0  0  0  0  0  0  0  0  0  0
   -0.2458   -1.2042    0.0000 C   0  0  0  0  0  0  0  0  0  0  0  0
   -1.2625    1.7500    0.0000 C   0  0  0  0  0  0  0  0  0  0  0  0
   -3.3000    2.9583    0.0000 C   0  0  0  0  0  0  0  0  0  0  0  0
   -1.2625    2.9583    0.0000 C   0  0  0  0  0  0  0  0  0  0  0  0
   -2.2833    1.1708    0.0000 C   0  0  0  0  0  0  0  0  0  0  0  0
   -2.2833    3.5333    0.0000 C   0  0  0  0  0  0  0  0  0  0  0  0
   -3.3000    1.7500    0.0000 C   0  0  0  0  0  0  0  0  0  0  0  0
   -4.3208    3.5500    0.0000 O   0  0  0  0  0  0  0  0  0  0  0  0
    0.8000   -1.7875    0.0000 C   0  0  0  0  0  0  0  0  0  0  0  0
    1.5375   -1.0500    0.0000 C   0  0  0  0  0  0  0  0  0  0  0  0
   -1.2625   -1.7875    0.0000 C   0  0  0  0  0  0  0  0  0  0  0  0
    1.5375    1.0125    0.0000 C   0  0  0  0  0  0  0  0  0  0  0  0
   -5.3458    2.9708    0.0000 C   0  0  0  0  0  0  0  0  0  0  0  0
   -1.2625   -2.9875    0.0000 C   0  0  0  0  0  0  0  0  0  0  0  0
    2.7375   -1.0500    0.0000 C   0  0  0  0  0  0  0  0  0  0  0  0
    0.8000   -2.9875    0.0000 C   0  0  0  0  0  0  0  0  0  0  0  0
    2.7375    1.0125    0.0000 C   0  0  0  0  0  0  0  0  0  0  0  0
    3.3167   -0.0292    0.0000 C   0  0  0  0  0  0  0  0  0  0  0  0
   -0.2458   -3.5667    0.0000 C   0  0  0  0  0  0  0  0  0  0  0  0
  2  1  1  0  0  0  0
  3  1  2  0  0  0  0
  4  1  1  0  0  0  0
  5  1  1  0  0  0  0
  6  2  1  0  0  0  0
  7 11  2  0  0  0  0
  8  6  1  0  0  0  0
  9  6  2  0  0  0  0
 10  8  2  0  0  0  0
 11  9  1  0  0  0  0
 12  7  1  0  0  0  0
 13  5  1  0  0  0  0
 14  4  2  0  0  0  0
 15  5  2  0  0  0  0
 16  4  1  0  0  0  0
 17 12  1  0  0  0  0
 18 15  1  0  0  0  0
 19 14  1  0  0  0  0
 20 13  2  0  0  0  0
 21 16  2  0  0  0  0
 22 21  1  0  0  0  0
 23 18  2  0  0  0  0
 23 20  1  0  0  0  0
 19 22  2  0  0  0  0
 10  7  1  0  0  0  0
M  END
>  <ID> (5116097)
5116097

>  <Supplier> (5116097)
ChemBridge

>  <clogP> (5116097)
5.710000000000000e+000

>  <RB> (5116097)
4

>  <tPSA> (5116097)
2.630000000000000e+001

>  <Hacc> (5116097)
2

>  <Hdon> (5116097)
0

>  <LogSw> (5116097)
-6.427000000000000e+000

>  <Group> (5116097)
2

$$$$
5879263
  -ISIS-  03310818232D

 30 34  0  0  0  0  0  0  0  0999 V2000
   -1.0625    0.7458    0.0000 C   0  0  0  0  0  0  0  0  0  0  0  0
   -0.3708    0.4208    0.0000 N   0  0  0  0  0  0  0  0  0  0  0  0
   -3.8833    0.9125    0.0000 C   0  0  0  0  0  0  0  0  0  0  0  0
   -3.3958    1.4708    0.0000 N   0  0  0  0  0  0  0  0  0  0  0  0
   -0.9958    1.4833    0.0000 S   0  0  0  0  0  0  0  0  0  0  0  0
   -4.5958    1.2000    0.0000 S   0  0  0  0  0  0  0  0  0  0  0  0
   -0.2208    1.6500    0.0000 C   0  0  0  0  0  0  0  0  0  0  0  0
    0.1167    0.9958    0.0000 C   0  0  0  0  0  0  0  0  0  0  0  0
   -3.7625    2.1333    0.0000 C   0  0  0  0  0  0  0  0  0  0  0  0
   -4.5333    1.9583    0.0000 C   0  0  0  0  0  0  0  0  0  0  0  0
   -1.6958    0.2833    0.0000 C   0  0  0  0  0  0  0  0  0  0  0  0
   -4.0833   -1.1042    0.0000 C   0  0  0  0  0  0  0  0  0  0  0  0
   -3.7000    0.1708    0.0000 S   0  0  0  0  0  0  0  0  0  0  0  0
   -3.3500   -1.3292    0.0000 N   0  0  0  0  0  0  0  0  0  0  0  0
    0.1792    2.3000    0.0000 C   0  0  0  0  0  0  0  0  0  0  0  0
   -4.6333   -1.6542    0.0000 O   0  0  0  0  0  0  0  0  0  0  0  0
    0.8792    0.9625    0.0000 C   0  0  0  0  0  0  0  0  0  0  0  0
   -2.4125    0.4833    0.0000 C   0  0  0  0  0  0  0  0  0  0  0  0
   -1.5125   -0.4875    0.0000 C   0  0  0  0  0  0  0  0  0  0  0  0
   -4.2708   -0.3500    0.0000 C   0  0  0  0  0  0  0  0  0  0  0  0
   -2.7958   -0.7875    0.0000 C   0  0  0  0  0  0  0  0  0  0  0  0
    0.9500    2.2708    0.0000 C   0  0  0  0  0  0  0  0  0  0  0  0
   -2.0458   -1.0167    0.0000 C   0  0  0  0  0  0  0  0  0  0  0  0
   -2.9708   -0.0500    0.0000 C   0  0  0  0  0  0  0  0  0  0  0  0
    1.3042    1.5833    0.0000 C   0  0  0  0  0  0  0  0  0  0  0  0
   -3.5625    2.8625    0.0000 C   0  0  0  0  0  0  0  0  0  0  0  0
   -5.0625    2.5000    0.0000 C   0  0  0  0  0  0  0  0  0  0  0  0
    1.2542    2.7458    0.0000 C   0  0  0  0  0  0  0  0  0  0  0  0
   -4.8333    3.2458    0.0000 C   0  0  0  0  0  0  0  0  0  0  0  0
   -4.1000    3.4208    0.0000 C   0  0  0  0  0  0  0  0  0  0  0  0
  2  1  2  0  0  0  0
  3 13  1  0  0  0  0
  4  3  2  0  0  0  0
  5  1  1  0  0  0  0
  6  3  1  0  0  0  0
  7  5  1  0  0  0  0
  8  2  1  0  0  0  0
  9  4  1  0  0  0  0
 10  6  1  0  0  0  0
 11  1  1  0  0  0  0
 12 14  1  0  0  0  0
 13 20  1  0  0  0  0
 14 21  1  0  0  0  0
 15  7  1  0  0  0  0
 16 12  2  0  0  0  0
 17  8  1  0  0  0  0
 18 11  2  0  0  0  0
 19 11  1  0  0  0  0
 20 12  1  0  0  0  0
 21 23  1  0  0  0  0
 22 15  2  0  0  0  0
 23 19  2  0  0  0  0
 24 18  1  0  0  0  0
 25 17  2  0  0  0  0
 26  9  1  0  0  0  0
 27 10  1  0  0  0  0
 28 22  1  0  0  0  0
 29 27  2  0  0  0  0
 30 26  2  0  0  0  0
  8  7  2  0  0  0  0
 24 21  2  0  0  0  0
 25 22  1  0  0  0  0
  9 10  2  0  0  0  0
 30 29  1  0  0  0  0
M  END
>  <ID> (5879263)
5879263

>  <Supplier> (5879263)
ChemBridge

>  <clogP> (5879263)
6.280000000000000e+000

>  <RB> (5879263)
5

>  <tPSA> (5879263)
5.488000000000000e+001

>  <Hacc> (5879263)
3

>  <Hdon> (5879263)
1

>  <LogSw> (5879263)
-8.936000000000000e+000

>  <Group> (5879263)
1

>  <Core> (5879263)
012

$$$$
5341519
  -ISIS-  03310818222D

 31 34  0  0  0  0  0  0  0  0999 V2000
    3.7500   -1.4000    0.0000 N   0  3  0  0  0  0  0  0  0  0  0  0
   -1.8958    0.0000    0.0000 C   0  0  0  0  0  0  0  0  0  0  0  0
   -1.0708    0.0000    0.0000 N   0  0  0  0  0  0  0  0  0  0  0  0
   -0.6708    0.7000    0.0000 C   0  0  0  0  0  0  0  0  0  0  0  0
   -1.0708    1.4000    0.0000 N   0  0  0  0  0  0  0  0  0  0  0  0
   -1.8708    1.4000    0.0000 C   0  0  0  0  0  0  0  0  0  0  0  0
   -2.2958    0.7000    0.0000 C   0  0  0  0  0  0  0  0  0  0  0  0
   -2.2958   -0.7000    0.0000 C   0  0  0  0  0  0  0  0  0  0  0  0
    2.9500   -1.4000    0.0000 C   0  0  0  0  0  0  0  0  0  0  0  0
    0.5500    0.0000    0.0000 N   0  0  0  0  0  0  0  0  0  0  0  0
    4.1292   -2.0875    0.0000 O   0  5  0  0  0  0  0  0  0  0  0  0
    4.1167   -0.7042    0.0000 O   0  0  0  0  0  0  0  0  0  0  0  0
    0.1500    0.7000    0.0000 N   0  0  0  0  0  0  0  0  0  0  0  0
   -3.0958   -0.7000    0.0000 C   0  0  0  0  0  0  0  0  0  0  0  0
    2.5500   -0.7000    0.0000 C   0  0  0  0  0  0  0  0  0  0  0  0
   -2.2708    2.1000    0.0000 C   0  0  0  0  0  0  0  0  0  0  0  0
    1.3500    0.0000    0.0000 C   0  0  0  0  0  0  0  0  0  0  0  0
    1.7500   -0.7000    0.0000 C   0  0  0  0  0  0  0  0  0  0  0  0
   -3.5125    0.0208    0.0000 O   0  0  0  0  0  0  0  0  0  0  0  0
   -1.8958   -1.4000    0.0000 C   0  0  0  0  0  0  0  0  0  0  0  0
    2.5500   -2.1000    0.0000 C   0  0  0  0  0  0  0  0  0  0  0  0
    1.7500   -2.1000    0.0000 C   0  0  0  0  0  0  0  0  0  0  0  0
   -3.4958   -1.4000    0.0000 C   0  0  0  0  0  0  0  0  0  0  0  0
   -3.0708    2.1000    0.0000 C   0  0  0  0  0  0  0  0  0  0  0  0
   -1.8708    2.8000    0.0000 C   0  0  0  0  0  0  0  0  0  0  0  0
    1.3500   -1.4000    0.0000 C   0  0  0  0  0  0  0  0  0  0  0  0
   -2.3125   -2.1000    0.0000 C   0  0  0  0  0  0  0  0  0  0  0  0
   -3.4708    2.8000    0.0000 C   0  0  0  0  0  0  0  0  0  0  0  0
   -3.0958   -2.1000    0.0000 C   0  0  0  0  0  0  0  0  0  0  0  0
   -2.2708    3.5000    0.0000 C   0  0  0  0  0  0  0  0  0  0  0  0
   -3.0708    3.5000    0.0000 C   0  0  0  0  0  0  0  0  0  0  0  0
  2  3  1  0  0  0  0
  3  4  2  0  0  0  0
  4 13  1  0  0  0  0
  5  4  1  0  0  0  0
  6  5  2  0  0  0  0
  7  6  1  0  0  0  0
  8  2  1  0  0  0  0
  9  1  1  0  0  0  0
 10 17  2  0  0  0  0
 11  1  1  0  0  0  0
 12  1  2  0  0  0  0
 13 10  1  0  0  0  0
 14  8  2  0  0  0  0
 15  9  2  0  0  0  0
 16  6  1  0  0  0  0
 17 18  1  0  0  0  0
 18 15  1  0  0  0  0
 19 14  1  0  0  0  0
 20  8  1  0  0  0  0
 21  9  1  0  0  0  0
 22 21  2  0  0  0  0
 23 14  1  0  0  0  0
 24 16  2  0  0  0  0
 25 16  1  0  0  0  0
 26 22  1  0  0  0  0
 27 20  2  0  0  0  0
 28 24  1  0  0  0  0
 29 27  1  0  0  0  0
 30 25  2  0  0  0  0
 31 30  1  0  0  0  0
 26 18  2  0  0  0  0
  7  2  2  0  0  0  0
 31 28  2  0  0  0  0
 23 29  2  0  0  0  0
M  CHG  2   1   1  11  -1
M  END
>  <ID> (5341519)
5341519

>  <Supplier> (5341519)
ChemBridge

>  <clogP> (5341519)
5.370000000000000e+000

>  <RB> (5341519)
5

>  <tPSA> (5341519)
1.135400000000000e+002

>  <Hacc> (5341519)
6

>  <Hdon> (5341519)
2

>  <LogSw> (5341519)
-6.595000000000000e+000

>  <Group> (5341519)
1

>  <Core> (5341519)
181

$$$$
5341514
  -ISIS-  03310818222D

 29 32  0  0  0  0  0  0  0  0999 V2000
   -1.8958    0.0000    0.0000 C   0  0  0  0  0  0  0  0  0  0  0  0
   -1.0708    0.0000    0.0000 N   0  0  0  0  0  0  0  0  0  0  0  0
   -0.6708    0.7000    0.0000 C   0  0  0  0  0  0  0  0  0  0  0  0
   -1.0708    1.4000    0.0000 N   0  0  0  0  0  0  0  0  0  0  0  0
   -1.8708    1.4000    0.0000 C   0  0  0  0  0  0  0  0  0  0  0  0
   -2.2958    0.7000    0.0000 C   0  0  0  0  0  0  0  0  0  0  0  0
   -2.2958   -0.7000    0.0000 C   0  0  0  0  0  0  0  0  0  0  0  0
    0.5500    0.0000    0.0000 N   0  0  0  0  0  0  0  0  0  0  0  0
    0.1500    0.7000    0.0000 N   0  0  0  0  0  0  0  0  0  0  0  0
   -3.0958   -0.7000    0.0000 C   0  0  0  0  0  0  0  0  0  0  0  0
   -2.2708    2.1000    0.0000 C   0  0  0  0  0  0  0  0  0  0  0  0
    1.3500    0.0000    0.0000 C   0  0  0  0  0  0  0  0  0  0  0  0
    1.7500   -0.7000    0.0000 C   0  0  0  0  0  0  0  0  0  0  0  0
    2.5500   -2.1000    0.0000 C   0  0  0  0  0  0  0  0  0  0  0  0
    2.9500   -2.8000    0.0000 Br  0  0  0  0  0  0  0  0  0  0  0  0
   -3.5125    0.0208    0.0000 O   0  0  0  0  0  0  0  0  0  0  0  0
    2.9500   -1.4000    0.0000 C   0  0  0  0  0  0  0  0  0  0  0  0
    1.7500   -2.1000    0.0000 C   0  0  0  0  0  0  0  0  0  0  0  0
    1.3500   -1.4000    0.0000 C   0  0  0  0  0  0  0  0  0  0  0  0
    2.5500   -0.7000    0.0000 C   0  0  0  0  0  0  0  0  0  0  0  0
   -1.8958   -1.4000    0.0000 C   0  0  0  0  0  0  0  0  0  0  0  0
   -3.4958   -1.4000    0.0000 C   0  0  0  0  0  0  0  0  0  0  0  0
   -1.8708    2.8000    0.0000 C   0  0  0  0  0  0  0  0  0  0  0  0
   -3.0708    2.1000    0.0000 C   0  0  0  0  0  0  0  0  0  0  0  0
   -2.3125   -2.1000    0.0000 C   0  0  0  0  0  0  0  0  0  0  0  0
   -3.4708    2.8000    0.0000 C   0  0  0  0  0  0  0  0  0  0  0  0
   -2.2708    3.5000    0.0000 C   0  0  0  0  0  0  0  0  0  0  0  0
   -3.0958   -2.1000    0.0000 C   0  0  0  0  0  0  0  0  0  0  0  0
   -3.0708    3.5000    0.0000 C   0  0  0  0  0  0  0  0  0  0  0  0
  2  1  1  0  0  0  0
  3  2  2  0  0  0  0
  4  5  2  0  0  0  0
  5  6  1  0  0  0  0
  6  1  2  0  0  0  0
  7  1  1  0  0  0  0
  8  9  1  0  0  0  0
  9  3  1  0  0  0  0
 10  7  2  0  0  0  0
 11  5  1  0  0  0  0
 12  8  2  0  0  0  0
 13 12  1  0  0  0  0
 14 17  1  0  0  0  0
 15 14  1  0  0  0  0
 16 10  1  0  0  0  0
 17 20  2  0  0  0  0
 18 19  1  0  0  0  0
 19 13  2  0  0  0  0
 20 13  1  0  0  0  0
 21  7  1  0  0  0  0
 22 10  1  0  0  0  0
 23 11  1  0  0  0  0
 24 11  2  0  0  0  0
 25 21  2  0  0  0  0
 26 24  1  0  0  0  0
 27 23  2  0  0  0  0
 28 25  1  0  0  0  0
 29 26  2  0  0  0  0
  4  3  1  0  0  0  0
 28 22  2  0  0  0  0
 29 27  1  0  0  0  0
 14 18  2  0  0  0  0
M  END
>  <ID> (5341514)
5341514

>  <Supplier> (5341514)
ChemBridge

>  <clogP> (5341514)
6.490000000000000e+000

>  <RB> (5341514)
5

>  <tPSA> (5341514)
7.040000000000001e+001

>  <Hacc> (5341514)
4

>  <Hdon> (5341514)
2

>  <LogSw> (5341514)
-7.408000000000000e+000

>  <Group> (5341514)
1

>  <Core> (5341514)
181

$$$$
5341515
  -ISIS-  03310818222D

 29 32  0  0  0  0  0  0  0  0999 V2000
   -1.8958    0.0000    0.0000 C   0  0  0  0  0  0  0  0  0  0  0  0
   -1.0708    0.0000    0.0000 N   0  0  0  0  0  0  0  0  0  0  0  0
   -0.6708    0.7000    0.0000 C   0  0  0  0  0  0  0  0  0  0  0  0
   -1.0708    1.4000    0.0000 N   0  0  0  0  0  0  0  0  0  0  0  0
   -1.8708    1.4000    0.0000 C   0  0  0  0  0  0  0  0  0  0  0  0
   -2.2958    0.7000    0.0000 C   0  0  0  0  0  0  0  0  0  0  0  0
   -2.2958   -0.7000    0.0000 C   0  0  0  0  0  0  0  0  0  0  0  0
    0.5500    0.0000    0.0000 N   0  0  0  0  0  0  0  0  0  0  0  0
    0.1500    0.7000    0.0000 N   0  0  0  0  0  0  0  0  0  0  0  0
   -3.0958   -0.7000    0.0000 C   0  0  0  0  0  0  0  0  0  0  0  0
   -2.2708    2.1000    0.0000 C   0  0  0  0  0  0  0  0  0  0  0  0
    1.3500    0.0000    0.0000 C   0  0  0  0  0  0  0  0  0  0  0  0
    1.7500   -0.7000    0.0000 C   0  0  0  0  0  0  0  0  0  0  0  0
    2.5500   -2.1000    0.0000 C   0  0  0  0  0  0  0  0  0  0  0  0
    2.9500   -2.8000    0.0000 F   0  0  0  0  0  0  0  0  0  0  0  0
   -3.5125    0.0208    0.0000 O   0  0  0  0  0  0  0  0  0  0  0  0
    1.7500   -2.1000    0.0000 C   0  0  0  0  0  0  0  0  0  0  0  0
    2.9500   -1.4000    0.0000 C   0  0  0  0  0  0  0  0  0  0  0  0
    2.5500   -0.7000    0.0000 C   0  0  0  0  0  0  0  0  0  0  0  0
    1.3500   -1.4000    0.0000 C   0  0  0  0  0  0  0  0  0  0  0  0
   -1.8958   -1.4000    0.0000 C   0  0  0  0  0  0  0  0  0  0  0  0
   -3.4958   -1.4000    0.0000 C   0  0  0  0  0  0  0  0  0  0  0  0
   -3.0708    2.1000    0.0000 C   0  0  0  0  0  0  0  0  0  0  0  0
   -1.8708    2.8000    0.0000 C   0  0  0  0  0  0  0  0  0  0  0  0
   -2.3125   -2.1000    0.0000 C   0  0  0  0  0  0  0  0  0  0  0  0
   -2.2708    3.5000    0.0000 C   0  0  0  0  0  0  0  0  0  0  0  0
   -3.0958   -2.1000    0.0000 C   0  0  0  0  0  0  0  0  0  0  0  0
   -3.4708    2.8000    0.0000 C   0  0  0  0  0  0  0  0  0  0  0  0
   -3.0708    3.5000    0.0000 C   0  0  0  0  0  0  0  0  0  0  0  0
  2  1  1  0  0  0  0
  3  2  2  0  0  0  0
  4  5  2  0  0  0  0
  5  6  1  0  0  0  0
  6  1  2  0  0  0  0
  7  1  1  0  0  0  0
  8  9  1  0  0  0  0
  9  3  1  0  0  0  0
 10  7  2  0  0  0  0
 11  5  1  0  0  0  0
 12  8  2  0  0  0  0
 13 12  1  0  0  0  0
 14 17  2  0  0  0  0
 15 14  1  0  0  0  0
 16 10  1  0  0  0  0
 17 20  1  0  0  0  0
 18 19  2  0  0  0  0
 19 13  1  0  0  0  0
 20 13  2  0  0  0  0
 21  7  1  0  0  0  0
 22 10  1  0  0  0  0
 23 11  2  0  0  0  0
 24 11  1  0  0  0  0
 25 21  2  0  0  0  0
 26 24  2  0  0  0  0
 27 25  1  0  0  0  0
 28 23  1  0  0  0  0
 29 26  1  0  0  0  0
  3  4  1  0  0  0  0
 22 27  2  0  0  0  0
 29 28  2  0  0  0  0
 14 18  1  0  0  0  0
M  END
>  <ID> (5341515)
5341515

>  <Supplier> (5341515)
ChemBridge

>  <clogP> (5341515)
5.770000000000001e+000

>  <RB> (5341515)
5

>  <tPSA> (5341515)
7.040000000000001e+001

>  <Hacc> (5341515)
4

>  <Hdon> (5341515)
2

>  <LogSw> (5341515)
-6.350000000000000e+000

>  <Group> (5341515)
1

>  <Core> (5341515)
181

$$$$
5341510
  -ISIS-  03310818222D

 33 37  0  0  0  0  0  0  0  0999 V2000
   -1.8958    0.0000    0.0000 C   0  0  0  0  0  0  0  0  0  0  0  0
   -1.0708    0.0000    0.0000 N   0  0  0  0  0  0  0  0  0  0  0  0
   -0.6708    0.7000    0.0000 C   0  0  0  0  0  0  0  0  0  0  0  0
   -1.0708    1.4000    0.0000 N   0  0  0  0  0  0  0  0  0  0  0  0
    1.7500   -0.7000    0.0000 C   0  0  0  0  0  0  0  0  0  0  0  0
   -1.8708    1.4000    0.0000 C   0  0  0  0  0  0  0  0  0  0  0  0
   -2.2958    0.7000    0.0000 C   0  0  0  0  0  0  0  0  0  0  0  0
   -2.2958   -0.7000    0.0000 C   0  0  0  0  0  0  0  0  0  0  0  0
    1.3500   -1.4000    0.0000 C   0  0  0  0  0  0  0  0  0  0  0  0
    0.5500    0.0000    0.0000 N   0  0  0  0  0  0  0  0  0  0  0  0
    2.5500   -0.7000    0.0000 C   0  0  0  0  0  0  0  0  0  0  0  0
    0.1500    0.7000    0.0000 N   0  0  0  0  0  0  0  0  0  0  0  0
    1.3500    0.0000    0.0000 C   0  0  0  0  0  0  0  0  0  0  0  0
   -3.0958   -0.7000    0.0000 C   0  0  0  0  0  0  0  0  0  0  0  0
   -2.2708    2.1000    0.0000 C   0  0  0  0  0  0  0  0  0  0  0  0
    1.7500   -2.1000    0.0000 C   0  0  0  0  0  0  0  0  0  0  0  0
    2.9500   -1.4000    0.0000 C   0  0  0  0  0  0  0  0  0  0  0  0
    2.5500   -2.1000    0.0000 C   0  0  0  0  0  0  0  0  0  0  0  0
    2.9500    0.0000    0.0000 O   0  0  0  0  0  0  0  0  0  0  0  0
   -3.5125    0.0208    0.0000 O   0  0  0  0  0  0  0  0  0  0  0  0
   -1.8958   -1.4000    0.0000 C   0  0  0  0  0  0  0  0  0  0  0  0
    0.5500   -1.4000    0.0000 C   0  0  0  0  0  0  0  0  0  0  0  0
   -3.4958   -1.4000    0.0000 C   0  0  0  0  0  0  0  0  0  0  0  0
   -1.8708    2.8000    0.0000 C   0  0  0  0  0  0  0  0  0  0  0  0
   -3.0708    2.1000    0.0000 C   0  0  0  0  0  0  0  0  0  0  0  0
    1.3500   -2.8000    0.0000 C   0  0  0  0  0  0  0  0  0  0  0  0
   -2.3125   -2.1000    0.0000 C   0  0  0  0  0  0  0  0  0  0  0  0
    0.1375   -2.0875    0.0000 C   0  0  0  0  0  0  0  0  0  0  0  0
   -2.2708    3.5000    0.0000 C   0  0  0  0  0  0  0  0  0  0  0  0
   -3.0958   -2.1000    0.0000 C   0  0  0  0  0  0  0  0  0  0  0  0
   -3.4708    2.8000    0.0000 C   0  0  0  0  0  0  0  0  0  0  0  0
    0.5375   -2.8000    0.0000 C   0  0  0  0  0  0  0  0  0  0  0  0
   -3.0708    3.5000    0.0000 C   0  0  0  0  0  0  0  0  0  0  0  0
  2  1  1  0  0  0  0
  3  2  2  0  0  0  0
  4  6  2  0  0  0  0
  5 13  1  0  0  0  0
  6  7  1  0  0  0  0
  7  1  2  0  0  0  0
  8  1  1  0  0  0  0
  9  5  2  0  0  0  0
 10 12  1  0  0  0  0
 11  5  1  0  0  0  0
 12  3  1  0  0  0  0
 13 10  2  0  0  0  0
 14  8  2  0  0  0  0
 15  6  1  0  0  0  0
 16  9  1  0  0  0  0
 17 11  2  0  0  0  0
 18 17  1  0  0  0  0
 19 11  1  0  0  0  0
 20 14  1  0  0  0  0
 21  8  1  0  0  0  0
 22  9  1  0  0  0  0
 23 14  1  0  0  0  0
 24 15  1  0  0  0  0
 25 15  2  0  0  0  0
 26 16  1  0  0  0  0
 27 21  2  0  0  0  0
 28 22  2  0  0  0  0
 29 24  2  0  0  0  0
 30 27  1  0  0  0  0
 31 25  1  0  0  0  0
 32 28  1  0  0  0  0
 33 31  2  0  0  0  0
  3  4  1  0  0  0  0
 23 30  2  0  0  0  0
 33 29  1  0  0  0  0
 16 18  2  0  0  0  0
 32 26  2  0  0  0  0
M  END
>  <ID> (5341510)
5341510

>  <Supplier> (5341510)
ChemBridge

>  <clogP> (5341510)
6.130000000000000e+000

>  <RB> (5341510)
5

>  <tPSA> (5341510)
9.063000000000002e+001

>  <Hacc> (5341510)
5

>  <Hdon> (5341510)
3

>  <LogSw> (5341510)
-7.008000000000000e+000

>  <Group> (5341510)
2

>  <Core> (5341510)
181

$$$$
5719593
  -ISIS-  03310818222D

 19 21  0  0  0  0  0  0  0  0999 V2000
   -0.4958    1.8333    0.0000 N   0  0  0  0  0  0  0  0  0  0  0  0
   -0.4958   -0.0292    0.0000 C   0  0  0  0  0  0  0  0  0  0  0  0
    0.3042    0.4333    0.0000 C   0  0  0  0  0  0  0  0  0  0  0  0
   -0.4958    2.7500    0.0000 C   0  0  0  0  0  0  0  0  0  0  0  0
   -0.4958   -0.9667    0.0000 C   0  0  0  0  0  0  0  0  0  0  0  0
    0.3042    1.3708    0.0000 C   0  0  0  0  0  0  0  0  0  0  0  0
    0.3042   -1.4292    0.0000 C   0  0  0  0  0  0  0  0  0  0  0  0
    0.3042    3.2125    0.0000 C   0  0  0  0  0  0  0  0  0  0  0  0
    1.1042    2.7708    0.0000 C   0  0  0  0  0  0  0  0  0  0  0  0
    1.1042    1.8333    0.0000 C   0  0  0  0  0  0  0  0  0  0  0  0
    1.1292   -0.9500    0.0000 O   0  0  0  0  0  0  0  0  0  0  0  0
   -1.2958    3.2125    0.0000 C   0  0  0  0  0  0  0  0  0  0  0  0
   -1.2958   -1.4292    0.0000 C   0  0  0  0  0  0  0  0  0  0  0  0
    0.3042   -2.3500    0.0000 C   0  0  0  0  0  0  0  0  0  0  0  0
    0.3042    4.1375    0.0000 C   0  0  0  0  0  0  0  0  0  0  0  0
   -1.2958    4.1292    0.0000 C   0  0  0  0  0  0  0  0  0  0  0  0
   -0.4958   -2.8042    0.0000 C   0  0  0  0  0  0  0  0  0  0  0  0
   -1.2958   -2.3667    0.0000 C   0  0  0  0  0  0  0  0  0  0  0  0
   -0.4958    4.5917    0.0000 C   0  0  0  0  0  0  0  0  0  0  0  0
  2  3  2  0  0  0  0
  3  6  1  0  0  0  0
  4  1  1  0  0  0  0
  5  2  1  0  0  0  0
  6  1  2  0  0  0  0
  7  5  1  0  0  0  0
  8  4  2  0  0  0  0
  9 10  2  0  0  0  0
 10  6  1  0  0  0  0
 11  7  1  0  0  0  0
 12  4  1  0  0  0  0
 13  5  2  0  0  0  0
 14  7  2  0  0  0  0
 15  8  1  0  0  0  0
 16 12  2  0  0  0  0
 17 18  2  0  0  0  0
 18 13  1  0  0  0  0
 19 16  1  0  0  0  0
  8  9  1  0  0  0  0
 19 15  2  0  0  0  0
 17 14  1  0  0  0  0
M  END
>  <ID> (5719593)
5719593

>  <Supplier> (5719593)
ChemBridge

>  <clogP> (5719593)
3.650000000000000e+000

>  <RB> (5719593)
2

>  <tPSA> (5719593)
3.311999999999998e+001

>  <Hacc> (5719593)
2

>  <Hdon> (5719593)
1

>  <LogSw> (5719593)
-3.541000000000000e+000

>  <Group> (5719593)
2

>  <Core> (5719593)
275

$$$$
5146521
  -ISIS-  03310818212D

 28 30  0  0  0  0  0  0  0  0999 V2000
   -3.2625    1.8333    0.0000 N   0  0  3  0  0  0  0  0  0  0  0  0
   -3.2625    1.1625    0.0000 C   0  0  0  0  0  0  0  0  0  0  0  0
   -4.4333    1.8333    0.0000 C   0  0  0  0  0  0  0  0  0  0  0  0
   -4.4333    1.1625    0.0000 C   0  0  0  0  0  0  0  0  0  0  0  0
   -3.8458    0.8125    0.0000 S   0  0  0  0  0  0  0  0  0  0  0  0
   -2.6500    2.1833    0.0000 C   0  0  0  0  0  0  0  0  0  0  0  0
   -5.0208    0.8125    0.0000 C   0  0  0  0  0  0  0  0  0  0  0  0
    1.6292    3.2500    0.0000 C   0  0  0  0  0  0  0  0  0  0  0  0
   -1.4458    2.1833    0.0000 C   0  0  0  0  0  0  0  0  0  0  0  0
   -2.6708    0.8125    0.0000 S   0  0  0  0  0  0  0  0  0  0  0  0
   -2.0458    1.8333    0.0000 C   0  0  0  0  0  0  0  0  0  0  0  0
   -5.0000    2.1958    0.0000 O   0  0  0  0  0  0  0  0  0  0  0  0
    1.0167    2.9000    0.0000 C   0  0  0  0  0  0  0  0  0  0  0  0
   -0.8458    1.8333    0.0000 N   0  0  0  0  0  0  0  0  0  0  0  0
    1.6375    3.9625    0.0000 O   0  0  0  0  0  0  0  0  0  0  0  0
   -1.4458    2.8833    0.0000 O   0  0  0  0  0  0  0  0  0  0  0  0
    0.3875    3.2708    0.0000 C   0  0  0  0  0  0  0  0  0  0  0  0
    1.0167    2.1833    0.0000 C   0  0  0  0  0  0  0  0  0  0  0  0
   -0.2333    2.1833    0.0000 C   0  0  0  0  0  0  0  0  0  0  0  0
   -5.0208    0.1333    0.0000 C   0  0  0  0  0  0  0  0  0  0  0  0
    2.2542    2.9125    0.0000 O   0  0  0  0  0  0  0  0  0  0  0  0
   -0.2333    2.9000    0.0000 C   0  0  0  0  0  0  0  0  0  0  0  0
    0.4000    1.8208    0.0000 C   0  0  0  0  0  0  0  0  0  0  0  0
   -4.4333   -0.1875    0.0000 C   0  0  0  0  0  0  0  0  0  0  0  0
   -5.6000   -0.1875    0.0000 C   0  0  0  0  0  0  0  0  0  0  0  0
   -5.6000   -0.8792    0.0000 C   0  0  0  0  0  0  0  0  0  0  0  0
   -4.4333   -0.8542    0.0000 C   0  0  0  0  0  0  0  0  0  0  0  0
   -5.0208   -1.2042    0.0000 C   0  0  0  0  0  0  0  0  0  0  0  0
  2  1  1  0  0  0  0
  3  1  1  0  0  0  0
  4  3  1  0  0  0  0
  5  2  1  0  0  0  0
  6  1  1  0  0  0  0
  7  4  2  0  0  0  0
  8 13  1  0  0  0  0
  9 11  1  0  0  0  0
 10  2  2  0  0  0  0
 11  6  1  0  0  0  0
 12  3  2  0  0  0  0
 13 18  1  0  0  0  0
 14  9  1  0  0  0  0
 15  8  2  0  0  0  0
 16  9  2  0  0  0  0
 17 22  1  0  0  0  0
 18 23  2  0  0  0  0
 19 14  1  0  0  0  0
 20  7  1  0  0  0  0
 21  8  1  0  0  0  0
 22 19  2  0  0  0  0
 23 19  1  0  0  0  0
 24 20  1  0  0  0  0
 25 20  2  0  0  0  0
 26 25  1  0  0  0  0
 27 24  2  0  0  0  0
 28 26  2  0  0  0  0
  4  5  1  0  0  0  0
 13 17  2  0  0  0  0
 28 27  1  0  0  0  0
M  END
>  <ID> (5146521)
5146521

>  <Supplier> (5146521)
ChemBridge

>  <clogP> (5146521)
3.180000000000000e+000

>  <RB> (5146521)
6

>  <tPSA> (5146521)
8.671000000000001e+001

>  <Hacc> (5146521)
4

>  <Hdon> (5146521)
2

>  <LogSw> (5146521)
-4.923000000000000e+000

>  <Group> (5146521)
1

>  <Core> (5146521)
001

$$$$
5146523
  -ISIS-  03310818212D

 28 30  0  0  0  0  0  0  0  0999 V2000
   -3.2625    1.8333    0.0000 N   0  0  3  0  0  0  0  0  0  0  0  0
   -3.2625    1.1625    0.0000 C   0  0  0  0  0  0  0  0  0  0  0  0
   -4.4333    1.8333    0.0000 C   0  0  0  0  0  0  0  0  0  0  0  0
   -4.4333    1.1625    0.0000 C   0  0  0  0  0  0  0  0  0  0  0  0
   -3.8458    0.8125    0.0000 S   0  0  0  0  0  0  0  0  0  0  0  0
    0.4000    1.8208    0.0000 C   0  0  0  0  0  0  0  0  0  0  0  0
   -2.6500    2.1833    0.0000 C   0  0  0  0  0  0  0  0  0  0  0  0
   -5.0208    0.8125    0.0000 C   0  0  0  0  0  0  0  0  0  0  0  0
   -0.2333    2.1833    0.0000 C   0  0  0  0  0  0  0  0  0  0  0  0
    0.4000    1.1208    0.0000 C   0  0  0  0  0  0  0  0  0  0  0  0
   -0.8458    1.8333    0.0000 N   0  0  0  0  0  0  0  0  0  0  0  0
   -1.4458    2.1833    0.0000 C   0  0  0  0  0  0  0  0  0  0  0  0
   -2.0458    1.8333    0.0000 C   0  0  0  0  0  0  0  0  0  0  0  0
   -2.6708    0.8125    0.0000 S   0  0  0  0  0  0  0  0  0  0  0  0
   -5.0000    2.1958    0.0000 O   0  0  0  0  0  0  0  0  0  0  0  0
    1.0000    0.7708    0.0000 O   0  0  0  0  0  0  0  0  0  0  0  0
   -1.4458    2.8833    0.0000 O   0  0  0  0  0  0  0  0  0  0  0  0
   -5.0208    0.1333    0.0000 C   0  0  0  0  0  0  0  0  0  0  0  0
   -0.1958    0.7458    0.0000 O   0  0  0  0  0  0  0  0  0  0  0  0
    1.0167    2.1833    0.0000 C   0  0  0  0  0  0  0  0  0  0  0  0
   -0.2333    2.9000    0.0000 C   0  0  0  0  0  0  0  0  0  0  0  0
   -4.4333   -0.1875    0.0000 C   0  0  0  0  0  0  0  0  0  0  0  0
   -5.6000   -0.1875    0.0000 C   0  0  0  0  0  0  0  0  0  0  0  0
    1.0167    2.9000    0.0000 C   0  0  0  0  0  0  0  0  0  0  0  0
    0.3875    3.2708    0.0000 C   0  0  0  0  0  0  0  0  0  0  0  0
   -5.6000   -0.8792    0.0000 C   0  0  0  0  0  0  0  0  0  0  0  0
   -4.4333   -0.8542    0.0000 C   0  0  0  0  0  0  0  0  0  0  0  0
   -5.0208   -1.2042    0.0000 C   0  0  0  0  0  0  0  0  0  0  0  0
  2  1  1  0  0  0  0
  3  1  1  0  0  0  0
  4  3  1  0  0  0  0
  5  2  1  0  0  0  0
  6  9  1  0  0  0  0
  7  1  1  0  0  0  0
  8  4  2  0  0  0  0
  9 11  1  0  0  0  0
 10  6  1  0  0  0  0
 11 12  1  0  0  0  0
 12 13  1  0  0  0  0
 13  7  1  0  0  0  0
 14  2  2  0  0  0  0
 15  3  2  0  0  0  0
 16 10  2  0  0  0  0
 17 12  2  0  0  0  0
 18  8  1  0  0  0  0
 19 10  1  0  0  0  0
 20  6  2  0  0  0  0
 21  9  2  0  0  0  0
 22 18  1  0  0  0  0
 23 18  2  0  0  0  0
 24 25  2  0  0  0  0
 25 21  1  0  0  0  0
 26 23  1  0  0  0  0
 27 22  2  0  0  0  0
 28 26  2  0  0  0  0
  4  5  1  0  0  0  0
 28 27  1  0  0  0  0
 20 24  1  0  0  0  0
M  END
>  <ID> (5146523)
5146523

>  <Supplier> (5146523)
ChemBridge

>  <clogP> (5146523)
3.810000000000000e+000

>  <RB> (5146523)
6

>  <tPSA> (5146523)
8.671000000000001e+001

>  <Hacc> (5146523)
4

>  <Hdon> (5146523)
2

>  <LogSw> (5146523)
-5.461000000000000e+000

>  <Group> (5146523)
3

>  <Core> (5146523)
001

$$$$
5489453
  -ISIS-  03310818222D

 15 15  0  0  0  0  0  0  0  0999 V2000
    0.9000   -3.7167    0.0000 N   0  0  0  0  0  0  0  0  0  0  0  0
    3.9000   -2.4292    0.0000 C   0  0  3  0  0  0  0  0  0  0  0  0
    5.0292   -1.7792    0.0000 N   0  0  0  0  0  0  0  0  0  0  0  0
    4.2792   -3.0792    0.0000 O   0  0  0  0  0  0  0  0  0  0  0  0
    0.5167   -4.3542    0.0000 C   0  0  3  0  0  0  0  0  0  0  0  0
    2.7792   -3.0792    0.0000 O   0  0  0  0  0  0  0  0  0  0  0  0
    4.2792   -1.7792    0.0000 C   0  0  0  0  0  0  0  0  0  0  0  0
    3.1500   -2.4292    0.0000 C   0  0  0  0  0  0  0  0  0  0  0  0
    1.6500   -3.7167    0.0000 C   0  0  0  0  0  0  0  0  0  0  0  0
    2.0292   -3.0667    0.0000 C   0  0  0  0  0  0  0  0  0  0  0  0
   -0.2208   -4.3500    0.0000 C   0  0  0  0  0  0  0  0  0  0  0  0
    0.8875   -5.0042    0.0000 C   0  0  0  0  0  0  0  0  0  0  0  0
   -0.6000   -4.9875    0.0000 C   0  0  0  0  0  0  0  0  0  0  0  0
    0.5000   -5.6542    0.0000 C   0  0  0  0  0  0  0  0  0  0  0  0
   -0.2458   -5.6500    0.0000 C   0  0  0  0  0  0  0  0  0  0  0  0
  2  8  1  0  0  0  0
  3  7  1  0  0  0  0
  4  2  1  0  0  0  0
  5  1  1  0  0  0  0
  6 10  1  0  0  0  0
  7  2  1  0  0  0  0
  8  6  1  0  0  0  0
  9  1  1  0  0  0  0
 10  9  1  0  0  0  0
 11  5  1  0  0  0  0
 12  5  1  0  0  0  0
 13 11  1  0  0  0  0
 14 12  1  0  0  0  0
 15 14  1  0  0  0  0
 15 13  1  0  0  0  0
M  END
>  <ID> (5489453)
5489453

>  <Supplier> (5489453)
ChemBridge

>  <clogP> (5489453)
3.500000000000000e-001

>  <RB> (5489453)
7

>  <tPSA> (5489453)
6.751000000000002e+001

>  <Hacc> (5489453)
4

>  <Hdon> (5489453)
3

>  <LogSw> (5489453)
-7.000000000000001e-002

>  <Group> (5489453)
3

$$$$
7049386
  -ISIS-  03310818252D

 26 28  0  0  0  0  0  0  0  0999 V2000
   -0.7833    1.2958    0.0000 N   0  0  3  0  0  0  0  0  0  0  0  0
   -0.5333    0.5083    0.0000 C   0  0  0  0  0  0  0  0  0  0  0  0
   -0.1208    1.7750    0.0000 C   0  0  0  0  0  0  0  0  0  0  0  0
    0.5500    1.2958    0.0000 C   0  0  0  0  0  0  0  0  0  0  0  0
    0.2917    0.5083    0.0000 N   0  0  0  0  0  0  0  0  0  0  0  0
    0.4667    4.2542    0.0000 N   0  3  0  0  0  0  0  0  0  0  0  0
    1.0667    3.7083    0.0000 C   0  0  0  0  0  0  0  0  0  0  0  0
    1.3375    1.5458    0.0000 C   0  0  0  0  0  0  0  0  0  0  0  0
   -1.5708    1.5458    0.0000 C   0  0  0  0  0  0  0  0  0  0  0  0
    1.8542    3.9583    0.0000 C   0  0  0  0  0  0  0  0  0  0  0  0
    0.9000    2.9083    0.0000 C   0  0  0  0  0  0  0  0  0  0  0  0
    0.6375    5.0667    0.0000 O   0  5  0  0  0  0  0  0  0  0  0  0
   -1.0208   -0.1542    0.0000 O   0  0  0  0  0  0  0  0  0  0  0  0
   -0.3208    4.0125    0.0000 O   0  0  0  0  0  0  0  0  0  0  0  0
   -0.1208    2.6000    0.0000 O   0  0  0  0  0  0  0  0  0  0  0  0
    1.5042    2.3458    0.0000 C   0  0  0  0  0  0  0  0  0  0  0  0
    2.4625    3.4208    0.0000 C   0  0  0  0  0  0  0  0  0  0  0  0
   -1.7458    2.3500    0.0000 C   0  0  0  0  0  0  0  0  0  0  0  0
    2.2917    2.6083    0.0000 C   0  0  0  0  0  0  0  0  0  0  0  0
    2.0292    4.7542    0.0000 Cl  0  0  0  0  0  0  0  0  0  0  0  0
   -2.0750    3.9708    0.0000 C   0  0  0  0  0  0  0  0  0  0  0  0
   -2.2500    4.7750    0.0000 F   0  0  0  0  0  0  0  0  0  0  0  0
   -1.1250    2.9083    0.0000 C   0  0  0  0  0  0  0  0  0  0  0  0
   -2.5208    2.6083    0.0000 C   0  0  0  0  0  0  0  0  0  0  0  0
   -1.2958    3.7125    0.0000 C   0  0  0  0  0  0  0  0  0  0  0  0
   -2.6958    3.4208    0.0000 C   0  0  0  0  0  0  0  0  0  0  0  0
  2  1  1  0  0  0  0
  3  1  1  0  0  0  0
  4  3  1  0  0  0  0
  5  2  1  0  0  0  0
  6  7  1  0  0  0  0
  7 11  1  0  0  0  0
  8  4  2  0  0  0  0
  9  1  1  0  0  0  0
 10 17  1  0  0  0  0
 11 16  2  0  0  0  0
 12  6  1  0  0  0  0
 13  2  2  0  0  0  0
 14  6  2  0  0  0  0
 15  3  2  0  0  0  0
 16  8  1  0  0  0  0
 17 19  2  0  0  0  0
 18  9  1  0  0  0  0
 19 16  1  0  0  0  0
 20 10  1  0  0  0  0
 21 26  1  0  0  0  0
 22 21  1  0  0  0  0
 23 18  2  0  0  0  0
 24 18  1  0  0  0  0
 25 23  1  0  0  0  0
 26 24  2  0  0  0  0
  5  4  1  0  0  0  0
 25 21  2  0  0  0  0
 10  7  2  0  0  0  0
M  CHG  2   6   1  12  -1
M  END
>  <ID> (7049386)
7049386

>  <Supplier> (7049386)
ChemBridge

>  <clogP> (7049386)
3.030000000000000e+000

>  <RB> (7049386)
3

>  <tPSA> (7049386)
9.255000000000003e+001

>  <Hacc> (7049386)
4

>  <Hdon> (7049386)
1

>  <LogSw> (7049386)
-4.917000000000000e+000

>  <Group> (7049386)
2

>  <Core> (7049386)
003

$$$$
5734950
  -ISIS-  03310818222D

 19 20  0  0  0  0  0  0  0  0999 V2000
    0.4417    0.6208    0.0000 N   0  0  3  0  0  0  0  0  0  0  0  0
    0.4417   -0.1292    0.0000 C   0  0  0  0  0  0  0  0  0  0  0  0
    1.7375    0.6208    0.0000 C   0  0  0  0  0  0  0  0  0  0  0  0
    1.7375   -0.1292    0.0000 C   0  0  0  0  0  0  0  0  0  0  0  0
    1.0875   -0.5042    0.0000 S   0  0  0  0  0  0  0  0  0  0  0  0
    2.3792   -0.5042    0.0000 C   0  0  0  0  0  0  0  0  0  0  0  0
    2.3792   -2.7542    0.0000 C   0  0  0  0  0  0  0  0  0  0  0  0
    1.7375   -2.3792    0.0000 C   0  0  0  0  0  0  0  0  0  0  0  0
    3.0417   -2.3792    0.0000 C   0  0  0  0  0  0  0  0  0  0  0  0
    2.3792   -1.2542    0.0000 C   0  0  0  0  0  0  0  0  0  0  0  0
   -0.2083   -0.5000    0.0000 S   0  0  0  0  0  0  0  0  0  0  0  0
    1.7375   -1.6250    0.0000 C   0  0  0  0  0  0  0  0  0  0  0  0
    3.0375   -1.6292    0.0000 C   0  0  0  0  0  0  0  0  0  0  0  0
    2.2667    1.1583    0.0000 O   0  0  0  0  0  0  0  0  0  0  0  0
   -0.0958    1.1583    0.0000 C   0  0  0  0  0  0  0  0  0  0  0  0
    3.6875   -2.7542    0.0000 Br  0  0  0  0  0  0  0  0  0  0  0  0
    1.0875   -2.7500    0.0000 Br  0  0  0  0  0  0  0  0  0  0  0  0
    2.3792   -3.5000    0.0000 O   0  0  0  0  0  0  0  0  0  0  0  0
   -0.8208    0.9583    0.0000 C   0  0  0  0  0  0  0  0  0  0  0  0
  2  1  1  0  0  0  0
  3  1  1  0  0  0  0
  4  3  1  0  0  0  0
  5  2  1  0  0  0  0
  6  4  2  0  0  0  0
  7  9  1  0  0  0  0
  8 12  1  0  0  0  0
  9 13  2  0  0  0  0
 10  6  1  0  0  0  0
 11  2  2  0  0  0  0
 12 10  2  0  0  0  0
 13 10  1  0  0  0  0
 14  3  2  0  0  0  0
 15  1  1  0  0  0  0
 16  9  1  0  0  0  0
 17  8  1  0  0  0  0
 18  7  1  0  0  0  0
 19 15  1  0  0  0  0
  4  5  1  0  0  0  0
  7  8  2  0  0  0  0
M  END
>  <ID> (5734950)
5734950

>  <Supplier> (5734950)
ChemBridge

>  <clogP> (5734950)
3.550000000000000e+000

>  <RB> (5734950)
1

>  <tPSA> (5734950)
4.053999999999999e+001

>  <Hacc> (5734950)
2

>  <Hdon> (5734950)
1

>  <LogSw> (5734950)
-4.736000000000002e+000

>  <Group> (5734950)
1

>  <Core> (5734950)
001

$$$$
9014418
  -ISIS-  03310818282D

 24 26  0  0  0  0  0  0  0  0999 V2000
    3.0917    1.0375    0.0000 N   0  0  0  0  0  0  0  0  0  0  0  0
    3.8417    1.0375    0.0000 C   0  0  0  0  0  0  0  0  0  0  0  0
    2.7167    0.3875    0.0000 C   0  0  0  0  0  0  0  0  0  0  0  0
    7.2167    1.6875    0.0000 N   0  0  3  0  0  0  0  0  0  0  0  0
    1.9667    0.3875    0.0000 C   0  0  0  0  0  0  0  0  0  0  0  0
    1.5292    0.9958    0.0000 S   0  0  0  0  0  0  0  0  0  0  0  0
    6.4667    1.6875    0.0000 C   0  0  0  0  0  0  0  0  0  0  0  0
    4.2167    1.6875    0.0000 N   0  0  0  0  0  0  0  0  0  0  0  0
    4.2167    0.3875    0.0000 S   0  0  0  0  0  0  0  0  0  0  0  0
    3.0917   -0.2625    0.0000 O   0  0  0  0  0  0  0  0  0  0  0  0
    1.5292   -0.2167    0.0000 C   0  0  0  0  0  0  0  0  0  0  0  0
    0.8125    0.7625    0.0000 C   0  0  0  0  0  0  0  0  0  0  0  0
    7.5917    1.0375    0.0000 C   0  0  3  0  0  0  0  0  0  0  0  0
    0.8125    0.0125    0.0000 C   0  0  0  0  0  0  0  0  0  0  0  0
    6.0917    1.0375    0.0000 C   0  0  0  0  0  0  0  0  0  0  0  0
    6.0917    2.3375    0.0000 C   0  0  0  0  0  0  0  0  0  0  0  0
    4.9667    1.6875    0.0000 C   0  0  0  0  0  0  0  0  0  0  0  0
    5.3417    2.3375    0.0000 C   0  0  0  0  0  0  0  0  0  0  0  0
    5.3417    1.0375    0.0000 C   0  0  0  0  0  0  0  0  0  0  0  0
    7.5917    2.3375    0.0000 C   0  0  0  0  0  0  0  0  0  0  0  0
    7.2167    0.3875    0.0000 C   0  0  0  0  0  0  0  0  0  0  0  0
    8.3417    1.0375    0.0000 C   0  0  0  0  0  0  0  0  0  0  0  0
    8.3417    2.3375    0.0000 C   0  0  0  0  0  0  0  0  0  0  0  0
    8.7167    1.6875    0.0000 C   0  0  0  0  0  0  0  0  0  0  0  0
  2  1  1  0  0  0  0
  3  1  1  0  0  0  0
  4  7  1  0  0  0  0
  5  3  1  0  0  0  0
  6  5  1  0  0  0  0
  7 15  1  0  0  0  0
  8  2  1  0  0  0  0
  9  2  2  0  0  0  0
 10  3  2  0  0  0  0
 11  5  2  0  0  0  0
 12  6  1  0  0  0  0
 13  4  1  0  0  0  0
 14 11  1  0  0  0  0
 15 19  2  0  0  0  0
 16 18  1  0  0  0  0
 17  8  1  0  0  0  0
 18 17  2  0  0  0  0
 19 17  1  0  0  0  0
 20  4  1  0  0  0  0
 21 13  1  0  0  0  0
 22 13  1  0  0  0  0
 23 20  1  0  0  0  0
 24 23  1  0  0  0  0
 14 12  2  0  0  0  0
  7 16  2  0  0  0  0
 22 24  1  0  0  0  0
M  END
>  <ID> (9014418)
9014418

>  <Supplier> (9014418)
ChemBridge

>  <clogP> (9014418)
4.275000000000000e+000

>  <RB> (9014418)
3

>  <tPSA> (9014418)
4.437000000000001e+001

>  <Hacc> (9014418)
1

>  <Hdon> (9014418)
2

>  <LogSw> (9014418)
-5.472000000000000e+000

>  <Group> (9014418)
1

>  <Core> (9014418)
071

$$$$
9014419
  -ISIS-  03310818282D

 23 24  0  0  0  0  0  0  0  0999 V2000
    1.1625    2.1625    0.0000 N   0  3  0  0  0  0  0  0  0  0  0  0
    5.2875    2.8125    0.0000 C   0  0  0  0  0  0  0  0  0  0  0  0
    4.5375    2.8125    0.0000 C   0  0  0  0  0  0  0  0  0  0  0  0
    4.1625    2.1625    0.0000 N   0  0  0  0  0  0  0  0  0  0  0  0
    5.6625    2.1625    0.0000 C   0  0  0  0  0  0  0  0  0  0  0  0
    1.9125    2.1625    0.0000 C   0  0  0  0  0  0  0  0  0  0  0  0
    2.2875    1.5125    0.0000 C   0  0  0  0  0  0  0  0  0  0  0  0
    3.4125    2.1625    0.0000 C   0  0  0  0  0  0  0  0  0  0  0  0
    3.0375    1.5125    0.0000 C   0  0  0  0  0  0  0  0  0  0  0  0
    0.7875    2.8125    0.0000 O   0  5  0  0  0  0  0  0  0  0  0  0
    0.7875    1.5125    0.0000 O   0  0  0  0  0  0  0  0  0  0  0  0
    4.1625    3.4625    0.0000 O   0  0  0  0  0  0  0  0  0  0  0  0
    6.4125    2.1625    0.0000 C   0  0  0  0  0  0  0  0  0  0  0  0
    2.2875    2.8125    0.0000 C   0  0  0  0  0  0  0  0  0  0  0  0
    3.0375    2.8125    0.0000 C   0  0  0  0  0  0  0  0  0  0  0  0
    5.2875    1.5125    0.0000 O   0  0  0  0  0  0  0  0  0  0  0  0
    5.6625    3.4625    0.0000 C   0  0  0  0  0  0  0  0  0  0  0  0
    3.4125    0.8625    0.0000 O   0  0  0  0  0  0  0  0  0  0  0  0
    6.4125    3.4625    0.0000 C   0  0  0  0  0  0  0  0  0  0  0  0
    6.7875    2.8125    0.0000 C   0  0  0  0  0  0  0  0  0  0  0  0
    6.7875    1.5125    0.0000 C   0  0  0  0  0  0  0  0  0  0  0  0
    5.6625    0.8625    0.0000 C   0  0  0  0  0  0  0  0  0  0  0  0
    3.0375    0.2208    0.0000 C   0  0  0  0  0  0  0  0  0  0  0  0
  2  3  1  0  0  0  0
  3  4  1  0  0  0  0
  4  8  1  0  0  0  0
  5  2  1  0  0  0  0
  6  1  1  0  0  0  0
  7  6  1  0  0  0  0
  8 15  2  0  0  0  0
  9  7  2  0  0  0  0
 10  1  1  0  0  0  0
 11  1  2  0  0  0  0
 12  3  2  0  0  0  0
 13  5  2  0  0  0  0
 14  6  2  0  0  0  0
 15 14  1  0  0  0  0
 16  5  1  0  0  0  0
 17  2  2  0  0  0  0
 18  9  1  0  0  0  0
 19 17  1  0  0  0  0
 20 19  2  0  0  0  0
 21 13  1  0  0  0  0
 22 16  1  0  0  0  0
 23 18  1  0  0  0  0
  9  8  1  0  0  0  0
 20 13  1  0  0  0  0
M  CHG  2   1   1  10  -1
M  END
>  <ID> (9014419)
9014419

>  <Supplier> (9014419)
ChemBridge

>  <clogP> (9014419)
2.942000000000000e+000

>  <RB> (9014419)
2

>  <tPSA> (9014419)
9.070000000000000e+001

>  <Hacc> (9014419)
5

>  <Hdon> (9014419)
1

>  <LogSw> (9014419)
-4.409000000000002e+000

>  <Group> (9014419)
1

>  <Core> (9014419)
511

$$$$
7206848
  -ISIS-  03310818262D

 21 21  0  0  0  0  0  0  0  0999 V2000
   -0.8125    1.5833    0.0000 C   0  0  0  0  0  0  0  0  0  0  0  0
    1.7875    1.5833    0.0000 N   0  0  3  0  0  0  0  0  0  0  0  0
   -1.4625    1.2083    0.0000 C   0  0  0  0  0  0  0  0  0  0  0  0
   -2.1125    1.5833    0.0000 C   0  0  0  0  0  0  0  0  0  0  0  0
   -0.1625    1.2083    0.0000 O   0  0  0  0  0  0  0  0  0  0  0  0
   -0.8125    2.3333    0.0000 O   0  0  0  0  0  0  0  0  0  0  0  0
    3.0792    2.3333    0.0000 O   0  0  0  0  0  0  0  0  0  0  0  0
    1.1375    1.2083    0.0000 C   0  0  0  0  0  0  0  0  0  0  0  0
    0.4875    1.5833    0.0000 C   0  0  3  0  0  0  0  0  0  0  0  0
   -2.7625    1.2083    0.0000 C   0  0  0  0  0  0  0  0  0  0  0  0
   -0.2208   -0.0917    0.0000 Cl  0  0  0  0  0  0  0  0  0  0  0  0
    1.7875    2.3333    0.0000 C   0  0  0  0  0  0  0  0  0  0  0  0
    2.4292    1.2083    0.0000 C   0  0  0  0  0  0  0  0  0  0  0  0
    3.0792    1.5833    0.0000 C   0  0  0  0  0  0  0  0  0  0  0  0
    2.4292    2.7083    0.0000 C   0  0  0  0  0  0  0  0  0  0  0  0
    0.4875    2.3333    0.0000 C   0  0  0  0  0  0  0  0  0  0  0  0
   -2.7625    0.4583    0.0000 C   0  0  0  0  0  0  0  0  0  0  0  0
   -3.4125    1.5833    0.0000 C   0  0  0  0  0  0  0  0  0  0  0  0
   -3.4125    0.0833    0.0000 C   0  0  0  0  0  0  0  0  0  0  0  0
   -4.0583    1.2083    0.0000 C   0  0  0  0  0  0  0  0  0  0  0  0
   -4.0583    0.4583    0.0000 C   0  0  0  0  0  0  0  0  0  0  0  0
  2  8  1  0  0  0  0
  3  1  1  0  0  0  0
  4  3  2  0  0  0  0
  5  1  1  0  0  0  0
  6  1  2  0  0  0  0
  7 15  1  0  0  0  0
  8  9  1  0  0  0  0
  9  5  1  0  0  0  0
 10  4  1  0  0  0  0
 12  2  1  0  0  0  0
 13  2  1  0  0  0  0
 14 13  1  0  0  0  0
 15 12  1  0  0  0  0
 16  9  1  0  0  0  0
 17 10  2  0  0  0  0
 18 10  1  0  0  0  0
 19 17  1  0  0  0  0
 20 18  2  0  0  0  0
 21 19  2  0  0  0  0
 14  7  1  0  0  0  0
 20 21  1  0  0  0  0
M  END
>  <ID> (7206848)
7206848

>  <Supplier> (7206848)
ChemBridge

>  <clogP> (7206848)
3.300000000000000e+000

>  <RB> (7206848)
6

>  <tPSA> (7206848)
3.877000000000000e+001

>  <Hacc> (7206848)
4

>  <Hdon> (7206848)
0

>  <LogSw> (7206848)
-3.019000000000000e+000

>  <Group> (7206848)
3

>  <Core> (7206848)
435

$$$$
9014415
  -ISIS-  03310818282D

 21 22  0  0  0  0  0  0  0  0999 V2000
    1.6667    1.9833    0.0000 N   0  0  3  0  0  0  0  0  0  0  0  0
    1.0167    2.3583    0.0000 C   0  0  0  0  0  0  0  0  0  0  0  0
    2.9667    1.2333    0.0000 O   0  0  0  0  0  0  0  0  0  0  0  0
    2.3167    2.3583    0.0000 C   0  0  0  0  0  0  0  0  0  0  0  0
    1.6667    1.2333    0.0000 C   0  0  0  0  0  0  0  0  0  0  0  0
    0.3667    1.9833    0.0000 C   0  0  0  0  0  0  0  0  0  0  0  0
   -2.2333    1.2333    0.0000 C   0  0  0  0  0  0  0  0  0  0  0  0
    1.0167    3.1083    0.0000 O   0  0  0  0  0  0  0  0  0  0  0  0
    2.3167    0.8583    0.0000 C   0  0  3  0  0  0  0  0  0  0  0  0
    2.9667    1.9833    0.0000 C   0  0  3  0  0  0  0  0  0  0  0  0
   -1.5833    0.8583    0.0000 O   0  0  0  0  0  0  0  0  0  0  0  0
   -2.2333    1.9833    0.0000 O   0  0  0  0  0  0  0  0  0  0  0  0
   -0.2833    2.3583    0.0000 C   0  0  0  0  0  0  0  0  0  0  0  0
    0.3667    1.2333    0.0000 C   0  0  0  0  0  0  0  0  0  0  0  0
   -0.9333    1.2333    0.0000 C   0  0  0  0  0  0  0  0  0  0  0  0
   -0.2833    0.8583    0.0000 C   0  0  0  0  0  0  0  0  0  0  0  0
   -0.9333    1.9833    0.0000 C   0  0  0  0  0  0  0  0  0  0  0  0
   -2.8833    0.8583    0.0000 C   0  0  0  0  0  0  0  0  0  0  0  0
    2.3167    0.1083    0.0000 C   0  0  0  0  0  0  0  0  0  0  0  0
    3.6167    2.3583    0.0000 C   0  0  0  0  0  0  0  0  0  0  0  0
   -3.5333    1.2333    0.0000 C   0  0  0  0  0  0  0  0  0  0  0  0
  2  1  1  0  0  0  0
  3  9  1  0  0  0  0
  4  1  1  0  0  0  0
  5  1  1  0  0  0  0
  6  2  1  0  0  0  0
  7 11  1  0  0  0  0
  8  2  2  0  0  0  0
  9  5  1  0  0  0  0
 10  4  1  0  0  0  0
 11 15  1  0  0  0  0
 12  7  2  0  0  0  0
 13  6  2  0  0  0  0
 14  6  1  0  0  0  0
 15 16  1  0  0  0  0
 16 14  2  0  0  0  0
 17 13  1  0  0  0  0
 18  7  1  0  0  0  0
 19  9  1  0  0  0  0
 20 10  1  0  0  0  0
 21 18  1  0  0  0  0
 10  3  1  0  0  0  0
 17 15  2  0  0  0  0
M  END
>  <ID> (9014415)
9014415

>  <Supplier> (9014415)
ChemBridge

>  <clogP> (9014415)
1.989000000000000e+000

>  <RB> (9014415)
3

>  <tPSA> (9014415)
5.584000000000000e+001

>  <Hacc> (9014415)
4

>  <Hdon> (9014415)
0

>  <LogSw> (9014415)
-3.024000000000000e+000

>  <Group> (9014415)
2

$$$$
6459502
  -ISIS-  03310818242D

 32 35  0  0  0  0  0  0  0  0999 V2000
    4.1917    2.7208    0.0000 N   0  0  0  0  0  0  0  0  0  0  0  0
    4.3417    4.0917    0.0000 C   0  0  0  0  0  0  0  0  0  0  0  0
    3.0750    4.6667    0.0000 O   0  0  0  0  0  0  0  0  0  0  0  0
   12.8500    7.5667    0.0000 C   0  0  0  0  0  0  0  0  0  0  0  0
   14.0625    6.8667    0.0000 C   0  0  0  0  0  0  0  0  0  0  0  0
    2.8167    2.4208    0.0000 C   0  0  0  0  0  0  0  0  0  0  0  0
   11.6417    6.8667    0.0000 N   0  0  0  0  0  0  0  0  0  0  0  0
    2.1167    3.6458    0.0000 C   0  0  0  0  0  0  0  0  0  0  0  0
   10.4292    7.5667    0.0000 C   0  0  0  0  0  0  0  0  0  0  0  0
    0.7125    3.6500    0.0000 C   0  0  0  0  0  0  0  0  0  0  0  0
    5.5667    4.7917    0.0000 C   0  0  0  0  0  0  0  0  0  0  0  0
    9.2250    6.8667    0.0000 N   0  0  0  0  0  0  0  0  0  0  0  0
   15.2917    7.5667    0.0000 C   0  0  0  0  0  0  0  0  0  0  0  0
   10.4292    8.9667    0.0000 S   0  0  0  0  0  0  0  0  0  0  0  0
   14.0750    5.4667    0.0000 C   0  0  0  0  0  0  0  0  0  0  0  0
    2.0917    1.1958    0.0000 C   0  0  0  0  0  0  0  0  0  0  0  0
   12.8500    8.9667    0.0000 O   0  0  0  0  0  0  0  0  0  0  0  0
    0.0000    2.4458    0.0000 C   0  0  0  0  0  0  0  0  0  0  0  0
    0.7000    1.2125    0.0000 C   0  0  0  0  0  0  0  0  0  0  0  0
    6.7792    4.0792    0.0000 C   0  0  0  0  0  0  0  0  0  0  0  0
    5.5750    6.1917    0.0000 C   0  0  0  0  0  0  0  0  0  0  0  0
   16.5000    6.8542    0.0000 C   0  0  0  0  0  0  0  0  0  0  0  0
    8.0042    6.1667    0.0000 C   0  0  0  0  0  0  0  0  0  0  0  0
   15.2917    4.7542    0.0000 C   0  0  0  0  0  0  0  0  0  0  0  0
    7.9917    4.7667    0.0000 C   0  0  0  0  0  0  0  0  0  0  0  0
    6.8000    6.8917    0.0000 C   0  0  0  0  0  0  0  0  0  0  0  0
   16.5000    5.4542    0.0000 C   0  0  0  0  0  0  0  0  0  0  0  0
   15.2917    3.3625    0.0000 Cl  0  0  0  0  0  0  0  0  0  0  0  0
   15.2917    8.9667    0.0000 O   0  0  0  0  0  0  0  0  0  0  0  0
    0.0167    4.8542    0.0000 C   0  0  0  0  0  0  0  0  0  0  0  0
    0.0000    0.0000    0.0000 C   0  0  0  0  0  0  0  0  0  0  0  0
   16.5125    9.6667    0.0000 C   0  0  0  0  0  0  0  0  0  0  0  0
  2  1  2  0  0  0  0
  3  2  1  0  0  0  0
  4  7  1  0  0  0  0
  5  4  1  0  0  0  0
  6  1  1  0  0  0  0
  7  9  1  0  0  0  0
  8  6  2  0  0  0  0
  9 12  1  0  0  0  0
 10  8  1  0  0  0  0
 11  2  1  0  0  0  0
 12 23  1  0  0  0  0
 13  5  1  0  0  0  0
 14  9  2  0  0  0  0
 15  5  2  0  0  0  0
 16  6  1  0  0  0  0
 17  4  2  0  0  0  0
 18 19  1  0  0  0  0
 19 16  2  0  0  0  0
 20 11  1  0  0  0  0
 21 11  2  0  0  0  0
 22 13  2  0  0  0  0
 23 26  2  0  0  0  0
 24 15  1  0  0  0  0
 25 20  2  0  0  0  0
 26 21  1  0  0  0  0
 27 24  2  0  0  0  0
 28 24  1  0  0  0  0
 29 13  1  0  0  0  0
 30 10  1  0  0  0  0
 31 19  1  0  0  0  0
 32 29  1  0  0  0  0
  3  8  1  0  0  0  0
 18 10  2  0  0  0  0
 25 23  1  0  0  0  0
 22 27  1  0  0  0  0
M  END
>  <ID> (6459502)
6459502

>  <Supplier> (6459502)
ChemBridge

>  <clogP> (6459502)
5.930000000000002e+000

>  <RB> (6459502)
3

>  <tPSA> (6459502)
7.639000000000000e+001

>  <Hacc> (6459502)
4

>  <Hdon> (6459502)
2

>  <LogSw> (6459502)
-7.659999999999998e+000

>  <Group> (6459502)
2

>  <Core> (6459502)
068

$$$$
9014411
  -ISIS-  03310818282D

 23 24  0  0  0  0  0  0  0  0999 V2000
    2.1167    0.9500    0.0000 C   0  0  0  0  0  0  0  0  0  0  0  0
    2.4917    1.6000    0.0000 C   0  0  0  0  0  0  0  0  0  0  0  0
    1.3667    0.9500    0.0000 N   0  0  0  0  0  0  0  0  0  0  0  0
    3.2417    1.6000    0.0000 C   0  0  0  0  0  0  0  0  0  0  0  0
    0.9917    0.3000    0.0000 C   0  0  0  0  0  0  0  0  0  0  0  0
    0.2417    0.3000    0.0000 C   0  0  0  0  0  0  0  0  0  0  0  0
    3.6167    0.9500    0.0000 O   0  0  0  0  0  0  0  0  0  0  0  0
    4.3667    0.9500    0.0000 C   0  0  0  0  0  0  0  0  0  0  0  0
   -0.1333    0.9500    0.0000 C   0  0  3  0  0  0  0  0  0  0  0  0
    2.4917    0.3000    0.0000 O   0  0  0  0  0  0  0  0  0  0  0  0
    4.7417    0.3000    0.0000 O   0  0  0  0  0  0  0  0  0  0  0  0
    2.1167    2.2500    0.0000 C   0  0  0  0  0  0  0  0  0  0  0  0
    3.6167    2.2500    0.0000 C   0  0  0  0  0  0  0  0  0  0  0  0
    1.3667   -0.3500    0.0000 C   0  0  0  0  0  0  0  0  0  0  0  0
   -0.1333   -0.3500    0.0000 C   0  0  0  0  0  0  0  0  0  0  0  0
   -0.8583    0.7583    0.0000 C   0  0  0  0  0  0  0  0  0  0  0  0
    0.5417    1.2708    0.0000 C   0  0  0  0  0  0  0  0  0  0  0  0
   -0.3958    1.6583    0.0000 C   0  0  0  0  0  0  0  0  0  0  0  0
    4.7417    1.6000    0.0000 C   0  0  0  0  0  0  0  0  0  0  0  0
    2.4917    2.9000    0.0000 C   0  0  0  0  0  0  0  0  0  0  0  0
    3.2417    2.9000    0.0000 C   0  0  0  0  0  0  0  0  0  0  0  0
    0.9917   -1.0000    0.0000 C   0  0  0  0  0  0  0  0  0  0  0  0
    0.2417   -1.0000    0.0000 C   0  0  0  0  0  0  0  0  0  0  0  0
  2  1  1  0  0  0  0
  3  1  1  0  0  0  0
  4  2  1  0  0  0  0
  5  3  1  0  0  0  0
  6  5  1  0  0  0  0
  7  4  1  0  0  0  0
  8  7  1  0  0  0  0
  9  6  1  0  0  0  0
 10  1  2  0  0  0  0
 11  8  2  0  0  0  0
 12  2  2  0  0  0  0
 13  4  2  0  0  0  0
 14  5  2  0  0  0  0
 15  6  2  0  0  0  0
 16  9  1  0  0  0  0
 17  9  1  0  0  0  0
 18  9  1  0  0  0  0
 19  8  1  0  0  0  0
 20 12  1  0  0  0  0
 21 20  2  0  0  0  0
 22 14  1  0  0  0  0
 23 22  2  0  0  0  0
 13 21  1  0  0  0  0
 15 23  1  0  0  0  0
M  END
>  <ID> (9014411)
9014411

>  <Supplier> (9014411)
ChemBridge

>  <clogP> (9014411)
3.387000000000000e+000

>  <RB> (9014411)
5

>  <tPSA> (9014411)
5.540000000000000e+001

>  <Hacc> (9014411)
3

>  <Hdon> (9014411)
1

>  <LogSw> (9014411)
-4.363000000000000e+000

>  <Group> (9014411)
1

>  <Core> (9014411)
511

$$$$
7141301
  -ISIS-  03310818252D

 25 26  0  0  0  0  0  0  0  0999 V2000
    4.2000    1.8625    0.0000 S   0  0  3  0  0  0  0  0  0  0  0  0
    0.0000    0.0000    0.0000 S   0  0  3  0  0  0  0  0  0  0  0  0
    5.0292    2.3333    0.0000 N   0  0  0  0  0  0  0  0  0  0  0  0
    0.9375    0.0000    0.0000 N   0  0  0  0  0  0  0  0  0  0  0  0
    3.3875    1.3708    0.0000 C   0  0  0  0  0  0  0  0  0  0  0  0
   -1.0500   -0.4500    0.0000 C   0  0  0  0  0  0  0  0  0  0  0  0
   -0.5708    0.5958    0.0000 O   0  0  0  0  0  0  0  0  0  0  0  0
    3.7167    2.6833    0.0000 O   0  0  0  0  0  0  0  0  0  0  0  0
    4.7000    1.0208    0.0000 O   0  0  0  0  0  0  0  0  0  0  0  0
   -0.1625   -0.8792    0.0000 O   0  0  0  0  0  0  0  0  0  0  0  0
    5.0292    3.2708    0.0000 C   0  0  3  0  0  0  0  0  0  0  0  0
   -1.1500   -1.3667    0.0000 C   0  0  0  0  0  0  0  0  0  0  0  0
    2.5792    1.8333    0.0000 C   0  0  0  0  0  0  0  0  0  0  0  0
    3.3875    0.4333    0.0000 C   0  0  0  0  0  0  0  0  0  0  0  0
   -1.8000    0.1125    0.0000 C   0  0  0  0  0  0  0  0  0  0  0  0
    1.7667    0.4625    0.0000 C   0  0  0  0  0  0  0  0  0  0  0  0
   -2.7708   -1.2167    0.0000 C   0  0  0  0  0  0  0  0  0  0  0  0
    1.7667    1.4000    0.0000 C   0  0  0  0  0  0  0  0  0  0  0  0
    2.5792   -0.0292    0.0000 C   0  0  0  0  0  0  0  0  0  0  0  0
   -1.9958   -1.7667    0.0000 C   0  0  0  0  0  0  0  0  0  0  0  0
   -2.6833   -0.2875    0.0000 C   0  0  0  0  0  0  0  0  0  0  0  0
   -3.6208   -1.5542    0.0000 Cl  0  0  0  0  0  0  0  0  0  0  0  0
    5.0292    4.2000    0.0000 C   0  0  0  0  0  0  0  0  0  0  0  0
    4.1000    3.2708    0.0000 C   0  0  0  0  0  0  0  0  0  0  0  0
    5.9667    3.2708    0.0000 C   0  0  0  0  0  0  0  0  0  0  0  0
  2  4  1  0  0  0  0
  3  1  1  0  0  0  0
  4 16  1  0  0  0  0
  5  1  1  0  0  0  0
  6  2  1  0  0  0  0
  7  2  2  0  0  0  0
  8  1  2  0  0  0  0
  9  1  2  0  0  0  0
 10  2  2  0  0  0  0
 11  3  1  0  0  0  0
 12  6  1  0  0  0  0
 13  5  1  0  0  0  0
 14  5  2  0  0  0  0
 15  6  2  0  0  0  0
 16 19  2  0  0  0  0
 17 21  2  0  0  0  0
 18 13  2  0  0  0  0
 19 14  1  0  0  0  0
 20 12  2  0  0  0  0
 21 15  1  0  0  0  0
 22 17  1  0  0  0  0
 23 11  1  0  0  0  0
 24 11  1  0  0  0  0
 25 11  1  0  0  0  0
 16 18  1  0  0  0  0
 20 17  1  0  0  0  0
M  END
>  <ID> (7141301)
7141301

>  <Supplier> (7141301)
ChemBridge

>  <clogP> (7141301)
3.690000000000000e+000

>  <RB> (7141301)
4

>  <tPSA> (7141301)
9.234000000000000e+001

>  <Hacc> (7141301)
5

>  <Hdon> (7141301)
2

>  <LogSw> (7141301)
-5.288000000000000e+000

>  <Group> (7141301)
3

>  <Core> (7141301)
235

$$$$
9014413
  -ISIS-  03310818282D

 22 23  0  0  0  0  0  0  0  0999 V2000
   -0.6458    4.3667    0.0000 N   0  0  3  0  0  0  0  0  0  0  0  0
   -1.0875    4.9792    0.0000 C   0  0  0  0  0  0  0  0  0  0  0  0
   -1.8000    4.7417    0.0000 N   0  0  0  0  0  0  0  0  0  0  0  0
   -1.8000    4.0000    0.0000 N   0  0  0  0  0  0  0  0  0  0  0  0
   -1.0875    3.7708    0.0000 C   0  0  0  0  0  0  0  0  0  0  0  0
    0.1042    4.3667    0.0000 N   0  0  0  0  0  0  0  0  0  0  0  0
    2.3542    3.0833    0.0000 C   0  0  0  0  0  0  0  0  0  0  0  0
    1.6042    3.0833    0.0000 C   0  0  0  0  0  0  0  0  0  0  0  0
    1.2292    3.7333    0.0000 C   0  0  0  0  0  0  0  0  0  0  0  0
    2.7292    3.7333    0.0000 C   0  0  0  0  0  0  0  0  0  0  0  0
    0.4792    3.7333    0.0000 C   0  0  0  0  0  0  0  0  0  0  0  0
   -0.8583    5.6917    0.0000 S   0  0  0  0  0  0  0  0  0  0  0  0
    1.6042    4.3667    0.0000 C   0  0  0  0  0  0  0  0  0  0  0  0
    2.3542    4.3667    0.0000 C   0  0  0  0  0  0  0  0  0  0  0  0
    2.7292    2.4250    0.0000 O   0  0  0  0  0  0  0  0  0  0  0  0
    1.2292    2.4250    0.0000 O   0  0  0  0  0  0  0  0  0  0  0  0
   -0.8583    3.0583    0.0000 C   0  0  0  0  0  0  0  0  0  0  0  0
    3.4792    3.7333    0.0000 O   0  0  0  0  0  0  0  0  0  0  0  0
    3.4792    2.4250    0.0000 C   0  0  0  0  0  0  0  0  0  0  0  0
    0.4792    2.4250    0.0000 C   0  0  0  0  0  0  0  0  0  0  0  0
    3.8542    4.3667    0.0000 C   0  0  0  0  0  0  0  0  0  0  0  0
   -1.3583    2.5000    0.0000 C   0  0  0  0  0  0  0  0  0  0  0  0
  2  1  1  0  0  0  0
  3  2  2  0  0  0  0
  4  5  2  0  0  0  0
  5  1  1  0  0  0  0
  6  1  1  0  0  0  0
  7  8  2  0  0  0  0
  8  9  1  0  0  0  0
  9 11  1  0  0  0  0
 10 14  2  0  0  0  0
 11  6  1  0  0  0  0
 12  2  1  0  0  0  0
 13  9  2  0  0  0  0
 14 13  1  0  0  0  0
 15  7  1  0  0  0  0
 16  8  1  0  0  0  0
 17  5  1  0  0  0  0
 18 10  1  0  0  0  0
 19 15  1  0  0  0  0
 20 16  1  0  0  0  0
 21 18  1  0  0  0  0
 22 17  1  0  0  0  0
  3  4  1  0  0  0  0
  7 10  1  0  0  0  0
M  END
>  <ID> (9014413)
9014413

>  <Supplier> (9014413)
ChemBridge

>  <clogP> (9014413)
3.101000000000000e+000

>  <RB> (9014413)
3

>  <tPSA> (9014413)
7.043000000000001e+001

>  <Hacc> (9014413)
5

>  <Hdon> (9014413)
1

>  <LogSw> (9014413)
-4.214000000000000e+000

>  <Group> (9014413)
1

$$$$
5771903
  -ISIS-  03310818222D

 41 45  0  0  0  0  0  0  0  0999 V2000
   -0.8625    1.5000    0.0000 C   0  0  3  0  0  0  0  0  0  0  0  0
   -1.3625    1.8000    0.0000 C   0  0  0  0  0  0  0  0  0  0  0  0
   -0.3625    1.8000    0.0000 C   0  0  0  0  0  0  0  0  0  0  0  0
   -0.8625    2.6625    0.0000 C   0  0  0  0  0  0  0  0  0  0  0  0
   -1.3625    2.3833    0.0000 C   0  0  0  0  0  0  0  0  0  0  0  0
   -0.3625    2.3833    0.0000 C   0  0  0  0  0  0  0  0  0  0  0  0
   -2.6458    0.0208    0.0000 N   0  0  3  0  0  0  0  0  0  0  0  0
    0.6167   -0.2792    0.0000 N   0  0  3  0  0  0  0  0  0  0  0  0
   -2.5458   -0.5500    0.0000 C   0  0  0  0  0  0  0  0  0  0  0  0
   -3.1833    0.2125    0.0000 C   0  0  0  0  0  0  0  0  0  0  0  0
    1.1875   -0.2000    0.0000 C   0  0  0  0  0  0  0  0  0  0  0  0
    0.4292   -0.8167    0.0000 C   0  0  0  0  0  0  0  0  0  0  0  0
   -0.5000    1.0625    0.0000 C   0  0  0  0  0  0  0  0  0  0  0  0
   -1.3208    1.1458    0.0000 C   0  0  0  0  0  0  0  0  0  0  0  0
    0.2375    0.1833    0.0000 C   0  0  0  0  0  0  0  0  0  0  0  0
   -2.2000    0.4000    0.0000 C   0  0  0  0  0  0  0  0  0  0  0  0
   -0.8625    3.2458    0.0000 O   0  0  0  0  0  0  0  0  0  0  0  0
   -2.9625   -0.9292    0.0000 O   0  0  0  0  0  0  0  0  0  0  0  0
    1.5542   -0.6167    0.0000 O   0  0  0  0  0  0  0  0  0  0  0  0
   -3.3000    0.7625    0.0000 O   0  0  0  0  0  0  0  0  0  0  0  0
   -0.1208   -0.9375    0.0000 O   0  0  0  0  0  0  0  0  0  0  0  0
   -0.7208    0.5208    0.0000 C   0  0  0  0  0  0  0  0  0  0  0  0
   -1.2208    0.5833    0.0000 C   0  0  0  0  0  0  0  0  0  0  0  0
    0.0542    1.1625    0.0000 C   0  0  0  0  0  0  0  0  0  0  0  0
   -1.8625    1.3458    0.0000 C   0  0  0  0  0  0  0  0  0  0  0  0
    0.4375    0.7208    0.0000 C   0  0  0  0  0  0  0  0  0  0  0  0
   -1.6625    0.2000    0.0000 C   0  0  0  0  0  0  0  0  0  0  0  0
   -2.3208    0.9833    0.0000 C   0  0  0  0  0  0  0  0  0  0  0  0
   -0.3458    0.0625    0.0000 C   0  0  0  0  0  0  0  0  0  0  0  0
   -1.8625    1.5000    0.0000 C   0  0  0  0  0  0  0  0  0  0  0  0
    0.1375    1.5000    0.0000 C   0  0  0  0  0  0  0  0  0  0  0  0
   -1.8625    2.6625    0.0000 C   0  0  0  0  0  0  0  0  0  0  0  0
    0.1375    2.6625    0.0000 C   0  0  0  0  0  0  0  0  0  0  0  0
   -3.6333   -0.1292    0.0000 C   0  0  0  0  0  0  0  0  0  0  0  0
    0.7667   -1.2667    0.0000 C   0  0  0  0  0  0  0  0  0  0  0  0
    1.4292    0.3208    0.0000 C   0  0  0  0  0  0  0  0  0  0  0  0
   -2.0125   -0.7792    0.0000 C   0  0  0  0  0  0  0  0  0  0  0  0
    0.6375    1.8000    0.0000 C   0  0  0  0  0  0  0  0  0  0  0  0
   -2.3625    1.8000    0.0000 C   0  0  0  0  0  0  0  0  0  0  0  0
    0.6375    2.3833    0.0000 C   0  0  0  0  0  0  0  0  0  0  0  0
   -2.3625    2.3833    0.0000 C   0  0  0  0  0  0  0  0  0  0  0  0
  2  1  1  0  0  0  0
  3  1  1  0  0  0  0
  4  6  1  0  0  0  0
  5  2  2  0  0  0  0
  6  3  2  0  0  0  0
  7 16  1  0  0  0  0
  8 15  1  0  0  0  0
  9  7  1  0  0  0  0
 10  7  1  0  0  0  0
 11  8  1  0  0  0  0
 12  8  1  0  0  0  0
 13  1  1  0  0  0  0
 14  1  1  0  0  0  0
 15 26  2  0  0  0  0
 16 28  2  0  0  0  0
 17  4  2  0  0  0  0
 18  9  2  0  0  0  0
 19 11  2  0  0  0  0
 20 10  2  0  0  0  0
 21 12  2  0  0  0  0
 22 13  1  0  0  0  0
 23 14  1  0  0  0  0
 24 13  2  0  0  0  0
 25 14  2  0  0  0  0
 26 24  1  0  0  0  0
 27 23  2  0  0  0  0
 28 25  1  0  0  0  0
 29 22  2  0  0  0  0
 30  2  1  0  0  0  0
 31  3  1  0  0  0  0
 32  5  1  0  0  0  0
 33  6  1  0  0  0  0
 34 10  1  0  0  0  0
 35 12  1  0  0  0  0
 36 11  1  0  0  0  0
 37  9  1  0  0  0  0
 38 31  2  0  0  0  0
 39 30  2  0  0  0  0
 40 38  1  0  0  0  0
 41 39  1  0  0  0  0
  5  4  1  0  0  0  0
 16 27  1  0  0  0  0
 15 29  1  0  0  0  0
 40 33  2  0  0  0  0
 41 32  2  0  0  0  0
M  END
>  <ID> (5771903)
5771903

>  <Supplier> (5771903)
ChemBridge

>  <clogP> (5771903)
3.070000000000000e+000

>  <RB> (5771903)
4

>  <tPSA> (5771903)
9.183000000000000e+001

>  <Hacc> (5771903)
5

>  <Hdon> (5771903)
0

>  <LogSw> (5771903)
-6.901000000000002e+000

>  <Group> (5771903)
3

$$$$
9066580
  -ISIS-  03310818292D

 21 22  0  0  0  0  0  0  0  0999 V2000
    2.8167    1.0125    0.0000 S   0  0  3  0  0  0  0  0  0  0  0  0
    2.1667    1.3875    0.0000 N   0  0  3  0  0  0  0  0  0  0  0  0
    3.3500    1.5458    0.0000 C   0  0  0  0  0  0  0  0  0  0  0  0
    4.0750    1.3458    0.0000 C   0  0  0  0  0  0  0  0  0  0  0  0
    4.6042    1.8833    0.0000 C   0  0  0  0  0  0  0  0  0  0  0  0
    2.3917    0.3958    0.0000 O   0  0  0  0  0  0  0  0  0  0  0  0
    3.3917    0.5333    0.0000 O   0  0  0  0  0  0  0  0  0  0  0  0
    4.4125    2.6000    0.0000 C   0  0  0  0  0  0  0  0  0  0  0  0
    2.1667    2.1458    0.0000 C   0  0  0  0  0  0  0  0  0  0  0  0
    1.5167    1.0125    0.0000 C   0  0  0  0  0  0  0  0  0  0  0  0
    3.1542    2.2708    0.0000 C   0  0  0  0  0  0  0  0  0  0  0  0
    3.6875    2.7958    0.0000 C   0  0  0  0  0  0  0  0  0  0  0  0
    5.3292    1.6833    0.0000 C   0  0  3  0  0  0  0  0  0  0  0  0
    0.8667    1.3875    0.0000 C   0  0  0  0  0  0  0  0  0  0  0  0
    1.5167    2.5208    0.0000 C   0  0  0  0  0  0  0  0  0  0  0  0
    4.9417    3.1333    0.0000 O   0  0  0  0  0  0  0  0  0  0  0  0
    0.8667    2.1458    0.0000 C   0  0  3  0  0  0  0  0  0  0  0  0
    5.5250    0.9583    0.0000 C   0  0  0  0  0  0  0  0  0  0  0  0
    5.8542    2.2125    0.0000 C   0  0  0  0  0  0  0  0  0  0  0  0
    4.7417    3.8583    0.0000 C   0  0  0  0  0  0  0  0  0  0  0  0
    0.2167    2.5208    0.0000 C   0  0  0  0  0  0  0  0  0  0  0  0
  2  1  1  0  0  0  0
  3  1  1  0  0  0  0
  4  3  2  0  0  0  0
  5  4  1  0  0  0  0
  6  1  2  0  0  0  0
  7  1  2  0  0  0  0
  8 12  1  0  0  0  0
  9  2  1  0  0  0  0
 10  2  1  0  0  0  0
 11  3  1  0  0  0  0
 12 11  2  0  0  0  0
 13  5  1  0  0  0  0
 14 10  1  0  0  0  0
 15  9  1  0  0  0  0
 16  8  1  0  0  0  0
 17 14  1  0  0  0  0
 18 13  1  0  0  0  0
 19 13  1  0  0  0  0
 20 16  1  0  0  0  0
 21 17  1  0  0  0  0
  8  5  2  0  0  0  0
 15 17  1  0  0  0  0
M  END
>  <ID> (9066580)
9066580

>  <Supplier> (9066580)
ChemBridge

>  <clogP> (9066580)
4.245000000000000e+000

>  <RB> (9066580)
1

>  <tPSA> (9066580)
4.661000000000000e+001

>  <Hacc> (9066580)
4

>  <Hdon> (9066580)
0

>  <LogSw> (9066580)
-5.196999999999997e+000

>  <Group> (9066580)
2

$$$$
5771905
  -ISIS-  03310818222D

 25 27  0  0  0  0  0  0  0  0999 V2000
   -1.4625   -0.3542    0.0000 C   0  0  0  0  0  0  0  0  0  0  0  0
   -1.5000    0.4500    0.0000 C   0  0  0  0  0  0  0  0  0  0  0  0
   -0.6625   -0.7375    0.0000 C   0  0  0  0  0  0  0  0  0  0  0  0
   -2.0958   -0.7375    0.0000 C   0  0  3  0  0  0  0  0  0  0  0  0
   -1.3958   -1.9667    0.0000 C   0  0  0  0  0  0  0  0  0  0  0  0
   -0.6625   -1.5542    0.0000 N   0  0  0  0  0  0  0  0  0  0  0  0
   -2.1000   -1.5542    0.0000 N   0  0  0  0  0  0  0  0  0  0  0  0
   -0.8125    0.9000    0.0000 N   0  0  0  0  0  0  0  0  0  0  0  0
   -2.8000   -0.3167    0.0000 C   0  0  0  0  0  0  0  0  0  0  0  0
   -2.2458    0.8333    0.0000 O   0  0  0  0  0  0  0  0  0  0  0  0
   -1.3958   -2.8000    0.0000 O   0  0  0  0  0  0  0  0  0  0  0  0
   -3.5208   -0.7167    0.0000 C   0  0  0  0  0  0  0  0  0  0  0  0
   -2.7958    0.5000    0.0000 C   0  0  0  0  0  0  0  0  0  0  0  0
   -0.0625    1.3625    0.0000 C   0  0  0  0  0  0  0  0  0  0  0  0
   -4.2208    0.5208    0.0000 C   0  0  0  0  0  0  0  0  0  0  0  0
    0.0292   -0.3000    0.0000 C   0  0  0  0  0  0  0  0  0  0  0  0
    1.4375    2.2708    0.0000 C   0  0  0  0  0  0  0  0  0  0  0  0
   -3.5000    0.9208    0.0000 C   0  0  0  0  0  0  0  0  0  0  0  0
   -4.2333   -0.3000    0.0000 C   0  0  0  0  0  0  0  0  0  0  0  0
   -4.9333    0.9458    0.0000 F   0  0  0  0  0  0  0  0  0  0  0  0
    2.1875    2.7333    0.0000 Br  0  0  0  0  0  0  0  0  0  0  0  0
    0.7042    0.9458    0.0000 C   0  0  0  0  0  0  0  0  0  0  0  0
   -0.0833    2.2458    0.0000 C   0  0  0  0  0  0  0  0  0  0  0  0
    1.4542    1.3958    0.0000 C   0  0  0  0  0  0  0  0  0  0  0  0
    0.6542    2.7083    0.0000 C   0  0  0  0  0  0  0  0  0  0  0  0
  2  1  1  0  0  0  0
  3  1  2  0  0  0  0
  4  1  1  0  0  0  0
  5  7  1  0  0  0  0
  6  3  1  0  0  0  0
  7  4  1  0  0  0  0
  8  2  1  0  0  0  0
  9  4  1  0  0  0  0
 10  2  2  0  0  0  0
 11  5  2  0  0  0  0
 12  9  1  0  0  0  0
 13  9  2  0  0  0  0
 14  8  1  0  0  0  0
 15 18  2  0  0  0  0
 16  3  1  0  0  0  0
 17 25  1  0  0  0  0
 18 13  1  0  0  0  0
 19 12  2  0  0  0  0
 20 15  1  0  0  0  0
 21 17  1  0  0  0  0
 22 14  2  0  0  0  0
 23 14  1  0  0  0  0
 24 22  1  0  0  0  0
 25 23  2  0  0  0  0
  5  6  1  0  0  0  0
 15 19  1  0  0  0  0
 17 24  2  0  0  0  0
M  END
>  <ID> (5771905)
5771905

>  <Supplier> (5771905)
ChemBridge

>  <clogP> (5771905)
5.300000000000000e+000

>  <RB> (5771905)
3

>  <tPSA> (5771905)
7.022999999999998e+001

>  <Hacc> (5771905)
2

>  <Hdon> (5771905)
3

>  <LogSw> (5771905)
-6.673000000000000e+000

>  <Group> (5771905)
2

>  <Core> (5771905)
073

$$$$
6968477
  -ISIS-  03310818252D

 27 30  0  0  0  0  0  0  0  0999 V2000
    4.8125   -3.9417    0.0000 C   0  0  0  0  0  0  0  0  0  0  0  0
    5.2125   -3.2292    0.0000 C   0  0  0  0  0  0  0  0  0  0  0  0
    6.0417   -3.2167    0.0000 N   0  0  3  0  0  0  0  0  0  0  0  0
    5.2375   -4.6667    0.0000 C   0  0  0  0  0  0  0  0  0  0  0  0
    4.0000   -4.1292    0.0000 C   0  0  0  0  0  0  0  0  0  0  0  0
    6.0542   -4.6542    0.0000 N   0  0  0  0  0  0  0  0  0  0  0  0
    6.4625   -3.9292    0.0000 C   0  0  0  0  0  0  0  0  0  0  0  0
    4.6875   -5.2792    0.0000 S   0  0  0  0  0  0  0  0  0  0  0  0
    3.9250   -4.9542    0.0000 C   0  0  0  0  0  0  0  0  0  0  0  0
    7.2750   -2.4917    0.0000 C   0  0  0  0  0  0  0  0  0  0  0  0
    6.4500   -2.4917    0.0000 C   0  0  0  0  0  0  0  0  0  0  0  0
    3.3292   -3.6542    0.0000 C   0  0  0  0  0  0  0  0  0  0  0  0
    4.7875   -2.5167    0.0000 O   0  0  0  0  0  0  0  0  0  0  0  0
    7.6917   -3.2042    0.0000 O   0  0  0  0  0  0  0  0  0  0  0  0
    7.6792   -1.7667    0.0000 O   0  0  0  0  0  0  0  0  0  0  0  0
    2.5917   -4.0042    0.0000 C   0  0  0  0  0  0  0  0  0  0  0  0
    3.4042   -2.8417    0.0000 C   0  0  0  0  0  0  0  0  0  0  0  0
    1.9917   -2.7167    0.0000 C   0  0  0  0  0  0  0  0  0  0  0  0
    1.9167   -3.5417    0.0000 C   0  0  0  0  0  0  0  0  0  0  0  0
    2.7375   -2.3667    0.0000 C   0  0  0  0  0  0  0  0  0  0  0  0
    1.3125   -2.2417    0.0000 Br  0  0  0  0  0  0  0  0  0  0  0  0
    8.5167   -3.1917    0.0000 C   0  0  3  0  0  0  0  0  0  0  0  0
    8.9292   -3.9042    0.0000 C   0  0  0  0  0  0  0  0  0  0  0  0
    8.9167   -2.4792    0.0000 C   0  0  0  0  0  0  0  0  0  0  0  0
    9.7417   -2.4667    0.0000 C   0  0  0  0  0  0  0  0  0  0  0  0
    9.7542   -3.9042    0.0000 C   0  0  0  0  0  0  0  0  0  0  0  0
   10.1625   -3.1792    0.0000 C   0  0  0  0  0  0  0  0  0  0  0  0
  2  1  1  0  0  0  0
  3  2  1  0  0  0  0
  4  1  2  0  0  0  0
  5  1  1  0  0  0  0
  6  4  1  0  0  0  0
  7  6  2  0  0  0  0
  8  4  1  0  0  0  0
  9  5  2  0  0  0  0
 10 11  1  0  0  0  0
 11  3  1  0  0  0  0
 12  5  1  0  0  0  0
 13  2  2  0  0  0  0
 14 10  1  0  0  0  0
 15 10  2  0  0  0  0
 16 12  1  0  0  0  0
 17 12  2  0  0  0  0
 18 20  2  0  0  0  0
 19 16  2  0  0  0  0
 20 17  1  0  0  0  0
 21 18  1  0  0  0  0
 22 14  1  0  0  0  0
 23 22  1  0  0  0  0
 24 22  1  0  0  0  0
 25 24  1  0  0  0  0
 26 23  1  0  0  0  0
 27 25  1  0  0  0  0
  9  8  1  0  0  0  0
  3  7  1  0  0  0  0
 18 19  1  0  0  0  0
 26 27  1  0  0  0  0
M  END
>  <ID> (6968477)
6968477

>  <Supplier> (6968477)
ChemBridge

>  <clogP> (6968477)
5.280000000000000e+000

>  <RB> (6968477)
5

>  <tPSA> (6968477)
6.119000000000000e+001

>  <Hacc> (6968477)
4

>  <Hdon> (6968477)
0

>  <LogSw> (6968477)
-6.970000000000002e+000

>  <Group> (6968477)
2

>  <Core> (6968477)
062

$$$$
9066588
  -ISIS-  03310818292D

 20 21  0  0  0  0  0  0  0  0999 V2000
    7.0167    1.5000    0.0000 S   0  0  3  0  0  0  0  0  0  0  0  0
    6.3667    1.1250    0.0000 C   0  0  0  0  0  0  0  0  0  0  0  0
    5.7167    1.5000    0.0000 C   0  0  0  0  0  0  0  0  0  0  0  0
    6.3667    0.3750    0.0000 C   0  0  0  0  0  0  0  0  0  0  0  0
    5.0667    1.1250    0.0000 C   0  0  0  0  0  0  0  0  0  0  0  0
    7.5917    1.9833    0.0000 O   0  0  0  0  0  0  0  0  0  0  0  0
    6.5875    2.1208    0.0000 O   0  0  0  0  0  0  0  0  0  0  0  0
    7.5500    0.9708    0.0000 N   0  0  0  0  0  0  0  0  0  0  0  0
    9.5292    0.8333    0.0000 N   0  0  3  0  0  0  0  0  0  0  0  0
   10.9792    1.2208    0.0000 O   0  0  0  0  0  0  0  0  0  0  0  0
    8.2750    1.1708    0.0000 C   0  0  0  0  0  0  0  0  0  0  0  0
    5.0667    0.3750    0.0000 C   0  0  0  0  0  0  0  0  0  0  0  0
    5.7167    2.2500    0.0000 Cl  0  0  0  0  0  0  0  0  0  0  0  0
    5.7167    0.0000    0.0000 C   0  0  0  0  0  0  0  0  0  0  0  0
    4.4167    0.0000    0.0000 Cl  0  0  0  0  0  0  0  0  0  0  0  0
    8.8042    0.6333    0.0000 C   0  0  0  0  0  0  0  0  0  0  0  0
    9.7167    1.5583    0.0000 C   0  0  0  0  0  0  0  0  0  0  0  0
   10.0542    0.3000    0.0000 C   0  0  0  0  0  0  0  0  0  0  0  0
   10.7792    0.4958    0.0000 C   0  0  0  0  0  0  0  0  0  0  0  0
   10.4417    1.7458    0.0000 C   0  0  0  0  0  0  0  0  0  0  0  0
  2  1  1  0  0  0  0
  3  2  1  0  0  0  0
  4  2  2  0  0  0  0
  5  3  2  0  0  0  0
  6  1  2  0  0  0  0
  7  1  2  0  0  0  0
  8  1  1  0  0  0  0
  9 16  1  0  0  0  0
 10 19  1  0  0  0  0
 11  8  1  0  0  0  0
 12 14  2  0  0  0  0
 13  3  1  0  0  0  0
 14  4  1  0  0  0  0
 15 12  1  0  0  0  0
 16 11  1  0  0  0  0
 17  9  1  0  0  0  0
 18  9  1  0  0  0  0
 19 18  1  0  0  0  0
 20 17  1  0  0  0  0
 12  5  1  0  0  0  0
 20 10  1  0  0  0  0
M  END
>  <ID> (9066588)
9066588

>  <Supplier> (9066588)
ChemBridge

>  <clogP> (9066588)
2.837000000000000e+000

>  <RB> (9066588)
4

>  <tPSA> (9066588)
5.863999999999997e+001

>  <Hacc> (9066588)
5

>  <Hdon> (9066588)
1

>  <LogSw> (9066588)
-1.892000000000000e+000

>  <Group> (9066588)
2

$$$$
6755519
  -ISIS-  03310818242D

 19 20  0  0  0  0  0  0  0  0999 V2000
    6.9542   -1.6292    0.0000 C   0  0  0  0  0  0  0  0  0  0  0  0
    6.2417   -2.0417    0.0000 C   0  0  0  0  0  0  0  0  0  0  0  0
    6.9500   -0.8042    0.0000 O   0  0  0  0  0  0  0  0  0  0  0  0
    6.2292   -0.3917    0.0000 C   0  0  0  0  0  0  0  0  0  0  0  0
    6.2292    0.4333    0.0000 C   0  0  0  0  0  0  0  0  0  0  0  0
    6.2417   -2.8750    0.0000 C   0  0  0  0  0  0  0  0  0  0  0  0
    7.6667   -2.0375    0.0000 O   0  0  0  0  0  0  0  0  0  0  0  0
    5.5042    0.8458    0.0000 C   0  0  0  0  0  0  0  0  0  0  0  0
    5.5167   -0.8042    0.0000 C   0  0  0  0  0  0  0  0  0  0  0  0
    4.0750    1.6583    0.0000 O   0  0  0  0  0  0  0  0  0  0  0  0
    4.8000    0.4250    0.0000 C   0  0  0  0  0  0  0  0  0  0  0  0
    6.9417    0.8500    0.0000 Br  0  0  0  0  0  0  0  0  0  0  0  0
    4.0792    0.8333    0.0000 C   0  0  0  0  0  0  0  0  0  0  0  0
    6.9542   -3.2875    0.0000 Cl  0  0  0  0  0  0  0  0  0  0  0  0
    4.8042   -0.3917    0.0000 C   0  0  0  0  0  0  0  0  0  0  0  0
    5.5250   -1.6292    0.0000 C   0  0  0  0  0  0  0  0  0  0  0  0
    5.5250   -3.2875    0.0000 C   0  0  0  0  0  0  0  0  0  0  0  0
    4.8125   -2.0500    0.0000 C   0  0  0  0  0  0  0  0  0  0  0  0
    4.8125   -2.8750    0.0000 C   0  0  0  0  0  0  0  0  0  0  0  0
  2  1  1  0  0  0  0
  3  1  1  0  0  0  0
  4  3  1  0  0  0  0
  5  4  2  0  0  0  0
  6  2  1  0  0  0  0
  7  1  2  0  0  0  0
  8  5  1  0  0  0  0
  9  4  1  0  0  0  0
 10 13  2  0  0  0  0
 11 15  1  0  0  0  0
 12  5  1  0  0  0  0
 13 11  1  0  0  0  0
 14  6  1  0  0  0  0
 15  9  2  0  0  0  0
 16  2  2  0  0  0  0
 17  6  2  0  0  0  0
 18 16  1  0  0  0  0
 19 18  2  0  0  0  0
 19 17  1  0  0  0  0
 11  8  2  0  0  0  0
M  END
>  <ID> (6755519)
6755519

>  <Supplier> (6755519)
ChemBridge

>  <clogP> (6755519)
4.280000000000000e+000

>  <RB> (6755519)
4

>  <tPSA> (6755519)
4.337000000000000e+001

>  <Hacc> (6755519)
3

>  <Hdon> (6755519)
0

>  <LogSw> (6755519)
-5.331000000000000e+000

>  <Group> (6755519)
1

>  <Core> (6755519)
266

$$$$
6968472
  -ISIS-  03310818252D

 21 22  0  0  0  0  0  0  0  0999 V2000
   13.5792    9.2500    0.0000 N   0  3  0  0  0  0  0  0  0  0  0  0
   -1.3333    0.6125    0.0000 C   0  0  0  0  0  0  0  0  0  0  0  0
   -1.2625    3.4958    0.0000 C   0  0  0  0  0  0  0  0  0  0  0  0
   11.0375    7.8542    0.0000 C   0  0  0  0  0  0  0  0  0  0  0  0
   16.0000    7.7542    0.0000 O   0  5  0  0  0  0  0  0  0  0  0  0
    1.1375   -0.7667    0.0000 C   0  0  0  0  0  0  0  0  0  0  0  0
   13.6375   12.1292    0.0000 O   0  0  0  0  0  0  0  0  0  0  0  0
    3.6792    0.7125    0.0000 O   0  0  0  0  0  0  0  0  0  0  0  0
    1.2542    4.8792    0.0000 O   0  0  0  0  0  0  0  0  0  0  0  0
   11.0375    4.9792    0.0000 C   0  0  0  0  0  0  0  0  0  0  0  0
    8.5042    9.2500    0.0000 C   0  0  0  0  0  0  0  0  0  0  0  0
    3.6792    3.5958    0.0000 C   0  0  0  0  0  0  0  0  0  0  0  0
   -3.6833    4.9792    0.0000 O   0  0  0  0  0  0  0  0  0  0  0  0
    6.0875    4.9792    0.0000 C   0  0  0  0  0  0  0  0  0  0  0  0
    8.5667    3.5958    0.0000 C   0  0  0  0  0  0  0  0  0  0  0  0
    6.0875    7.8542    0.0000 C   0  0  0  0  0  0  0  0  0  0  0  0
   -3.8000   -0.7667    0.0000 C   0  0  0  0  0  0  0  0  0  0  0  0
    1.1375   -3.6500    0.0000 C   0  0  0  0  0  0  0  0  0  0  0  0
   -6.1500    3.5958    0.0000 C   0  0  0  0  0  0  0  0  0  0  0  0
   -3.8000   -3.6500    0.0000 C   0  0  0  0  0  0  0  0  0  0  0  0
   -1.3333   -5.0375    0.0000 C   0  0  0  0  0  0  0  0  0  0  0  0
  2  6  1  0  0  0  0
  3  2  1  0  0  0  0
  4  1  1  0  0  0  0
  5  1  1  0  0  0  0
  6  8  1  0  0  0  0
  7  1  2  0  0  0  0
  8 12  1  0  0  0  0
  9  3  2  0  0  0  0
 10  4  1  0  0  0  0
 11  4  2  0  0  0  0
 12 14  1  0  0  0  0
 13  3  1  0  0  0  0
 14 16  2  0  0  0  0
 15 10  2  0  0  0  0
 16 11  1  0  0  0  0
 17  2  2  0  0  0  0
 18  6  2  0  0  0  0
 19 13  1  0  0  0  0
 20 21  2  0  0  0  0
 21 18  1  0  0  0  0
 14 15  1  0  0  0  0
 17 20  1  0  0  0  0
M  CHG  2   1   1   5  -1
M  END
>  <ID> (6968472)
6968472

>  <Supplier> (6968472)
ChemBridge

>  <clogP> (6968472)
3.550000000000000e+000

>  <RB> (6968472)
4

>  <tPSA> (6968472)
7.866999999999999e+001

>  <Hacc> (6968472)
5

>  <Hdon> (6968472)
0

>  <LogSw> (6968472)
-4.717000000000000e+000

>  <Group> (6968472)
2

$$$$
5675268
  -ISIS-  03310818222D

 27 29  0  0  0  0  0  0  0  0999 V2000
    0.4167   -0.3167    0.0000 C   0  0  0  0  0  0  0  0  0  0  0  0
    0.0000   -0.9375    0.0000 C   0  0  0  0  0  0  0  0  0  0  0  0
    1.1667   -0.4042    0.0000 N   0  0  3  0  0  0  0  0  0  0  0  0
    2.6542   -0.5542    0.0000 N   0  0  3  0  0  0  0  0  0  0  0  0
   -0.7500   -0.9375    0.0000 C   0  0  0  0  0  0  0  0  0  0  0  0
    5.6500   -0.8667    0.0000 N   0  3  0  0  0  0  0  0  0  0  0  0
   -0.9833   -1.6500    0.0000 N   0  0  0  0  0  0  0  0  0  0  0  0
    0.2167   -1.6500    0.0000 N   0  0  0  0  0  0  0  0  0  0  0  0
   -0.3833   -2.0875    0.0000 O   0  0  0  0  0  0  0  0  0  0  0  0
    1.6042    0.1958    0.0000 C   0  0  3  0  0  0  0  0  0  0  0  0
    1.4792   -1.0875    0.0000 C   0  0  3  0  0  0  0  0  0  0  0  0
    3.4042   -0.6375    0.0000 C   0  0  0  0  0  0  0  0  0  0  0  0
    2.3542    0.1208    0.0000 C   0  0  0  0  0  0  0  0  0  0  0  0
    2.2167   -1.1667    0.0000 C   0  0  0  0  0  0  0  0  0  0  0  0
    4.9000   -0.8000    0.0000 C   0  0  0  0  0  0  0  0  0  0  0  0
    3.7167   -1.3167    0.0000 C   0  0  0  0  0  0  0  0  0  0  0  0
    4.4542   -1.4000    0.0000 C   0  0  0  0  0  0  0  0  0  0  0  0
    0.1167    0.3500    0.0000 N   0  0  0  0  0  0  0  0  0  0  0  0
    3.8500   -0.0292    0.0000 C   0  0  0  0  0  0  0  0  0  0  0  0
    5.9542   -1.5542    0.0000 O   0  5  0  0  0  0  0  0  0  0  0  0
    6.0875   -0.2667    0.0000 O   0  0  0  0  0  0  0  0  0  0  0  0
    4.6000   -0.1042    0.0000 C   0  0  0  0  0  0  0  0  0  0  0  0
   -1.1958   -0.3167    0.0000 N   0  0  0  0  0  0  0  0  0  0  0  0
    3.2667   -1.9292    0.0000 Cl  0  0  0  0  0  0  0  0  0  0  0  0
    0.5542    0.9500    0.0000 O   0  0  0  0  0  0  0  0  0  0  0  0
    1.0375   -1.7000    0.0000 C   0  0  0  0  0  0  0  0  0  0  0  0
    1.3042    0.8833    0.0000 C   0  0  0  0  0  0  0  0  0  0  0  0
  2  1  1  0  0  0  0
  3  1  1  0  0  0  0
  4 14  1  0  0  0  0
  5  2  1  0  0  0  0
  6 15  1  0  0  0  0
  7  5  2  0  0  0  0
  8  2  2  0  0  0  0
  9  8  1  0  0  0  0
 10  3  1  0  0  0  0
 11  3  1  0  0  0  0
 12  4  1  0  0  0  0
 13 10  1  0  0  0  0
 14 11  1  0  0  0  0
 15 22  2  0  0  0  0
 16 12  1  0  0  0  0
 17 16  2  0  0  0  0
 18  1  2  0  0  0  0
 19 12  2  0  0  0  0
 20  6  1  0  0  0  0
 21  6  2  0  0  0  0
 22 19  1  0  0  0  0
 23  5  1  0  0  0  0
 24 16  1  0  0  0  0
 25 18  1  0  0  0  0
 26 11  1  0  0  0  0
 27 10  1  0  0  0  0
  4 13  1  0  0  0  0
  7  9  1  0  0  0  0
 17 15  1  0  0  0  0
M  CHG  2   6   1  20  -1
M  END
>  <ID> (5675268)
5675268

>  <Supplier> (5675268)
ChemBridge

>  <clogP> (5675268)
4.050000000000000e+000

>  <RB> (5675268)
3

>  <tPSA> (5675268)
1.471500000000000e+002

>  <Hacc> (5675268)
7

>  <Hdon> (5675268)
1

>  <LogSw> (5675268)
-5.934000000000000e+000

>  <Group> (5675268)
3

>  <Core> (5675268)
368

$$$$
5422503
  -ISIS-  03310818222D

 21 22  0  0  0  0  0  0  0  0999 V2000
    0.0542    1.7458    0.0000 C   0  0  0  0  0  0  0  0  0  0  0  0
   -0.6125    2.1333    0.0000 C   0  0  0  0  0  0  0  0  0  0  0  0
    0.7292    2.1125    0.0000 C   0  0  0  0  0  0  0  0  0  0  0  0
   -1.2708    1.8125    0.0000 C   0  0  0  0  0  0  0  0  0  0  0  0
    0.7292    2.9125    0.0000 C   0  0  0  0  0  0  0  0  0  0  0  0
   -1.9500    2.2083    0.0000 N   0  0  3  0  0  0  0  0  0  0  0  0
   -0.6125    2.8958    0.0000 C   0  0  0  0  0  0  0  0  0  0  0  0
    0.0542    3.3000    0.0000 C   0  0  0  0  0  0  0  0  0  0  0  0
   -2.6333    1.8125    0.0000 C   0  0  0  0  0  0  0  0  0  0  0  0
    1.4000    3.3000    0.0000 O   0  0  0  0  0  0  0  0  0  0  0  0
   -3.3208    2.2083    0.0000 C   0  0  0  0  0  0  0  0  0  0  0  0
    0.0542    0.9625    0.0000 C   0  0  0  0  0  0  0  0  0  0  0  0
    1.4000    1.7458    0.0000 C   0  0  0  0  0  0  0  0  0  0  0  0
   -1.9500    2.9958    0.0000 C   0  0  0  0  0  0  0  0  0  0  0  0
   -4.0000    1.8125    0.0000 C   0  0  0  0  0  0  0  0  0  0  0  0
   -3.3208    2.9958    0.0000 C   0  0  0  0  0  0  0  0  0  0  0  0
    1.4000    4.0792    0.0000 C   0  0  0  0  0  0  0  0  0  0  0  0
   -2.6333    3.3833    0.0000 C   0  0  0  0  0  0  0  0  0  0  0  0
   -4.0000    3.3958    0.0000 C   0  0  0  0  0  0  0  0  0  0  0  0
   -4.6833    2.2083    0.0000 C   0  0  0  0  0  0  0  0  0  0  0  0
   -4.6833    2.9958    0.0000 C   0  0  0  0  0  0  0  0  0  0  0  0
  2  1  1  0  0  0  0
  3  1  2  0  0  0  0
  4  2  1  0  0  0  0
  5  3  1  0  0  0  0
  6  4  1  0  0  0  0
  7  2  2  0  0  0  0
  8  5  2  0  0  0  0
  9  6  1  0  0  0  0
 10  5  1  0  0  0  0
 11  9  1  0  0  0  0
 12  1  1  0  0  0  0
 13  3  1  0  0  0  0
 14  6  1  0  0  0  0
 15 11  1  0  0  0  0
 16 11  2  0  0  0  0
 17 10  1  0  0  0  0
 18 14  1  0  0  0  0
 19 16  1  0  0  0  0
 20 15  2  0  0  0  0
 21 19  2  0  0  0  0
  7  8  1  0  0  0  0
 20 21  1  0  0  0  0
M  END
>  <ID> (5422503)
5422503

>  <Supplier> (5422503)
ChemBridge

>  <clogP> (5422503)
4.700000000000000e+000

>  <RB> (5422503)
4

>  <tPSA> (5422503)
1.247000000000000e+001

>  <Hacc> (5422503)
2

>  <Hdon> (5422503)
0

>  <LogSw> (5422503)
-4.273000000000002e+000

>  <Group> (5422503)
3

$$$$
9115287
  -ISIS-  03310818292D

 20 21  0  0  0  0  0  0  0  0999 V2000
    3.1417    2.7333    0.0000 C   0  0  0  0  0  0  0  0  0  0  0  0
    5.0917    2.3583    0.0000 C   0  0  0  0  0  0  0  0  0  0  0  0
    3.7917    2.3583    0.0000 N   0  0  3  0  0  0  0  0  0  0  0  0
    4.4417    2.7333    0.0000 C   0  0  0  0  0  0  0  0  0  0  0  0
    5.0917    1.6083    0.0000 C   0  0  0  0  0  0  0  0  0  0  0  0
    2.4917    2.3583    0.0000 C   0  0  0  0  0  0  0  0  0  0  0  0
    3.1417    3.4833    0.0000 O   0  0  0  0  0  0  0  0  0  0  0  0
    5.7417    1.2333    0.0000 O   0  0  0  0  0  0  0  0  0  0  0  0
    1.1917    2.3583    0.0000 N   0  0  0  0  0  0  0  0  0  0  0  0
    4.4417    1.2333    0.0000 O   0  0  0  0  0  0  0  0  0  0  0  0
    1.8417    2.7333    0.0000 C   0  0  0  0  0  0  0  0  0  0  0  0
    5.7417    2.7333    0.0000 C   0  0  0  0  0  0  0  0  0  0  0  0
    3.7917    1.6083    0.0000 C   0  0  0  0  0  0  0  0  0  0  0  0
    4.4417    3.4833    0.0000 C   0  0  0  0  0  0  0  0  0  0  0  0
    2.4917    1.6083    0.0000 C   0  0  0  0  0  0  0  0  0  0  0  0
    1.1917    1.6083    0.0000 C   0  0  0  0  0  0  0  0  0  0  0  0
    3.1417    1.2333    0.0000 C   0  0  0  0  0  0  0  0  0  0  0  0
    1.8417    1.2333    0.0000 C   0  0  0  0  0  0  0  0  0  0  0  0
    5.7417    3.4833    0.0000 C   0  0  0  0  0  0  0  0  0  0  0  0
    5.0917    3.8583    0.0000 C   0  0  0  0  0  0  0  0  0  0  0  0
  2  4  2  0  0  0  0
  3  1  1  0  0  0  0
  4  3  1  0  0  0  0
  5  2  1  0  0  0  0
  6  1  1  0  0  0  0
  7  1  2  0  0  0  0
  8  5  2  0  0  0  0
  9 11  1  0  0  0  0
 10  5  1  0  0  0  0
 11  6  2  0  0  0  0
 12  2  1  0  0  0  0
 13  3  1  0  0  0  0
 14  4  1  0  0  0  0
 15  6  1  0  0  0  0
 16 18  1  0  0  0  0
 17 13  1  0  0  0  0
 18 15  2  0  0  0  0
 19 20  1  0  0  0  0
 20 14  2  0  0  0  0
 16  9  2  0  0  0  0
 19 12  2  0  0  0  0
M  END
>  <ID> (9115287)
9115287

>  <Supplier> (9115287)
ChemBridge

>  <clogP> (9115287)
3.053000000000000e+000

>  <RB> (9115287)
3

>  <tPSA> (9115287)
7.050000000000000e+001

>  <Hacc> (9115287)
4

>  <Hdon> (9115287)
1

>  <LogSw> (9115287)
-3.496000000000000e+000

>  <Group> (9115287)
2

>  <Core> (9115287)
144

$$$$
5212488
  -ISIS-  03310818212D

 19 21  0  0  0  0  0  0  0  0999 V2000
    0.5042    0.0000    0.0000 C   0  0  0  0  0  0  0  0  0  0  0  0
    0.5042   -0.4542    0.0000 C   0  0  0  0  0  0  0  0  0  0  0  0
    0.0875    0.2458    0.0000 C   0  0  0  0  0  0  0  0  0  0  0  0
    0.9042    0.2458    0.0000 C   0  0  0  0  0  0  0  0  0  0  0  0
    0.0875   -0.7000    0.0000 C   0  0  0  0  0  0  0  0  0  0  0  0
   -0.3208    0.0000    0.0000 C   0  0  0  0  0  0  0  0  0  0  0  0
    1.3292    0.0000    0.0000 C   0  0  0  0  0  0  0  0  0  0  0  0
   -0.3208   -0.4542    0.0000 C   0  0  0  0  0  0  0  0  0  0  0  0
    0.9042   -0.7000    0.0000 C   0  0  0  0  0  0  0  0  0  0  0  0
    1.3292   -0.4542    0.0000 C   0  0  0  0  0  0  0  0  0  0  0  0
    0.0875    0.8125    0.0000 O   0  0  0  0  0  0  0  0  0  0  0  0
    0.0792   -1.1542    0.0000 O   0  0  0  0  0  0  0  0  0  0  0  0
    0.9000    0.8000    0.0000 Cl  0  0  0  0  0  0  0  0  0  0  0  0
    1.7500    0.3125    0.0000 N   0  0  0  0  0  0  0  0  0  0  0  0
    1.8500   -0.8042    0.0000 Cl  0  0  0  0  0  0  0  0  0  0  0  0
   -0.7333    0.2458    0.0000 C   0  0  0  0  0  0  0  0  0  0  0  0
   -0.7333   -0.7000    0.0000 C   0  0  0  0  0  0  0  0  0  0  0  0
   -1.1500    0.0000    0.0000 C   0  0  0  0  0  0  0  0  0  0  0  0
   -1.1500   -0.4542    0.0000 C   0  0  0  0  0  0  0  0  0  0  0  0
  2  1  2  0  0  0  0
  3  1  1  0  0  0  0
  4  1  1  0  0  0  0
  5  2  1  0  0  0  0
  6  3  1  0  0  0  0
  7  4  2  0  0  0  0
  8  6  2  0  0  0  0
  9  2  1  0  0  0  0
 10  7  1  0  0  0  0
 11  3  2  0  0  0  0
 12  5  2  0  0  0  0
 13  4  1  0  0  0  0
 14  7  1  0  0  0  0
 15 10  1  0  0  0  0
 16  6  1  0  0  0  0
 17  8  1  0  0  0  0
 18 16  2  0  0  0  0
 19 18  1  0  0  0  0
  9 10  2  0  0  0  0
  8  5  1  0  0  0  0
 17 19  2  0  0  0  0
M  END
>  <ID> (5212488)
5212488

>  <Supplier> (5212488)
ChemBridge

>  <clogP> (5212488)
3.300000000000000e+000

>  <RB> (5212488)
0

>  <tPSA> (5212488)
6.016000000000000e+001

>  <Hacc> (5212488)
2

>  <Hdon> (5212488)
1

>  <LogSw> (5212488)
-5.259000000000000e+000

>  <Group> (5212488)
3

$$$$
9115281
  -ISIS-  03310818292D

 26 28  0  0  0  0  0  0  0  0999 V2000
    4.6125    2.1875    0.0000 C   0  0  0  0  0  0  0  0  0  0  0  0
    3.9667    2.5625    0.0000 N   0  0  0  0  0  0  0  0  0  0  0  0
    2.6667    2.5625    0.0000 C   0  0  0  0  0  0  0  0  0  0  0  0
    2.0167    2.1875    0.0000 C   0  0  0  0  0  0  0  0  0  0  0  0
    7.8625    3.3125    0.0000 N   0  0  3  0  0  0  0  0  0  0  0  0
    5.2625    2.5625    0.0000 C   0  0  0  0  0  0  0  0  0  0  0  0
    3.3167    2.1875    0.0000 C   0  0  0  0  0  0  0  0  0  0  0  0
    2.0167    1.4375    0.0000 C   0  0  0  0  0  0  0  0  0  0  0  0
    4.6125    1.4375    0.0000 O   0  0  0  0  0  0  0  0  0  0  0  0
    7.2125    3.6875    0.0000 C   0  0  0  0  0  0  0  0  0  0  0  0
    5.9125    2.1875    0.0000 C   0  0  0  0  0  0  0  0  0  0  0  0
    5.2625    3.3125    0.0000 C   0  0  0  0  0  0  0  0  0  0  0  0
    2.6667    1.0625    0.0000 C   0  0  0  0  0  0  0  0  0  0  0  0
    6.5625    3.3125    0.0000 C   0  0  0  0  0  0  0  0  0  0  0  0
    3.3167    1.4375    0.0000 C   0  0  0  0  0  0  0  0  0  0  0  0
    1.3667    2.5625    0.0000 O   0  0  0  0  0  0  0  0  0  0  0  0
    5.9125    3.6875    0.0000 C   0  0  0  0  0  0  0  0  0  0  0  0
    6.5625    2.5625    0.0000 C   0  0  0  0  0  0  0  0  0  0  0  0
    1.3667    1.0625    0.0000 O   0  0  0  0  0  0  0  0  0  0  0  0
    7.8625    2.5625    0.0000 C   0  0  0  0  0  0  0  0  0  0  0  0
    8.5125    3.6875    0.0000 C   0  0  0  0  0  0  0  0  0  0  0  0
    1.3667    3.3125    0.0000 C   0  0  0  0  0  0  0  0  0  0  0  0
    1.3667    0.3125    0.0000 C   0  0  0  0  0  0  0  0  0  0  0  0
    9.1625    3.3125    0.0000 C   0  0  0  0  0  0  0  0  0  0  0  0
    8.5125    2.1875    0.0000 C   0  0  0  0  0  0  0  0  0  0  0  0
    9.1625    2.5625    0.0000 C   0  0  0  0  0  0  0  0  0  0  0  0
  2  1  1  0  0  0  0
  3  7  1  0  0  0  0
  4  3  2  0  0  0  0
  5 10  1  0  0  0  0
  6  1  1  0  0  0  0
  7  2  1  0  0  0  0
  8 13  2  0  0  0  0
  9  1  2  0  0  0  0
 10 14  1  0  0  0  0
 11  6  1  0  0  0  0
 12  6  2  0  0  0  0
 13 15  1  0  0  0  0
 14 17  2  0  0  0  0
 15  7  2  0  0  0  0
 16  4  1  0  0  0  0
 17 12  1  0  0  0  0
 18 11  2  0  0  0  0
 19  8  1  0  0  0  0
 20  5  1  0  0  0  0
 21  5  1  0  0  0  0
 22 16  1  0  0  0  0
 23 19  1  0  0  0  0
 24 21  1  0  0  0  0
 25 20  1  0  0  0  0
 26 24  1  0  0  0  0
 14 18  1  0  0  0  0
  4  8  1  0  0  0  0
 26 25  1  0  0  0  0
M  END
>  <ID> (9115281)
9115281

>  <Supplier> (9115281)
ChemBridge

>  <clogP> (9115281)
3.427000000000000e+000

>  <RB> (9115281)
4

>  <tPSA> (9115281)
5.080000000000000e+001

>  <Hacc> (9115281)
4

>  <Hdon> (9115281)
1

>  <LogSw> (9115281)
-4.739000000000003e+000

>  <Group> (9115281)
2

>  <Core> (9115281)
321

$$$$
9115280
  -ISIS-  03310818292D

 23 25  0  0  0  0  0  0  0  0999 V2000
    6.5667    1.3833    0.0000 O   0  0  0  0  0  0  0  0  0  0  0  0
    2.6667    0.8958    0.0000 C   0  0  0  0  0  0  0  0  0  0  0  0
    7.0125    1.9833    0.0000 C   0  0  0  0  0  0  0  0  0  0  0  0
    6.5667    2.5958    0.0000 N   0  0  0  0  0  0  0  0  0  0  0  0
    5.8542    1.6083    0.0000 C   0  0  0  0  0  0  0  0  0  0  0  0
    5.8542    2.3583    0.0000 N   0  0  0  0  0  0  0  0  0  0  0  0
    1.9542    1.1333    0.0000 N   0  0  0  0  0  0  0  0  0  0  0  0
    3.2750    1.3375    0.0000 N   0  0  0  0  0  0  0  0  0  0  0  0
    2.6667    0.1458    0.0000 S   0  0  0  0  0  0  0  0  0  0  0  0
    1.5125    0.5208    0.0000 C   0  0  0  0  0  0  0  0  0  0  0  0
    3.9542    1.0333    0.0000 C   0  0  0  0  0  0  0  0  0  0  0  0
    7.7625    1.9833    0.0000 C   0  0  0  0  0  0  0  0  0  0  0  0
    1.9542   -0.0792    0.0000 C   0  0  0  0  0  0  0  0  0  0  0  0
    5.2500    1.1708    0.0000 S   0  0  0  0  0  0  0  0  0  0  0  0
    8.1375    1.3375    0.0000 C   0  0  0  0  0  0  0  0  0  0  0  0
    4.0375    0.2875    0.0000 O   0  0  0  0  0  0  0  0  0  0  0  0
    4.5667    1.4750    0.0000 C   0  0  0  0  0  0  0  0  0  0  0  0
    8.8875    1.3375    0.0000 C   0  0  0  0  0  0  0  0  0  0  0  0
    9.2625    0.6875    0.0000 Cl  0  0  0  0  0  0  0  0  0  0  0  0
    8.1375    2.6333    0.0000 C   0  0  0  0  0  0  0  0  0  0  0  0
    8.8875    2.6333    0.0000 C   0  0  0  0  0  0  0  0  0  0  0  0
    0.7625    0.5208    0.0000 C   0  0  0  0  0  0  0  0  0  0  0  0
    9.2625    1.9833    0.0000 C   0  0  0  0  0  0  0  0  0  0  0  0
  2  8  1  0  0  0  0
  3  1  1  0  0  0  0
  4  3  2  0  0  0  0
  5  1  1  0  0  0  0
  6  5  2  0  0  0  0
  7  2  2  0  0  0  0
  8 11  1  0  0  0  0
  9  2  1  0  0  0  0
 10  7  1  0  0  0  0
 11 17  1  0  0  0  0
 12  3  1  0  0  0  0
 13  9  1  0  0  0  0
 14  5  1  0  0  0  0
 15 12  2  0  0  0  0
 16 11  2  0  0  0  0
 17 14  1  0  0  0  0
 18 15  1  0  0  0  0
 19 18  1  0  0  0  0
 20 12  1  0  0  0  0
 21 20  2  0  0  0  0
 22 10  1  0  0  0  0
 23 21  1  0  0  0  0
  6  4  1  0  0  0  0
 18 23  2  0  0  0  0
 10 13  2  0  0  0  0
M  END
>  <ID> (9115280)
9115280

>  <Supplier> (9115280)
ChemBridge

>  <clogP> (9115280)
2.387000000000000e+000

>  <RB> (9115280)
5

>  <tPSA> (9115280)
8.091000000000000e+001

>  <Hacc> (9115280)
5

>  <Hdon> (9115280)
1

>  <LogSw> (9115280)
-4.404000000000000e+000

>  <Group> (9115280)
2

>  <Core> (9115280)
013

$$$$
7667656
  -ISIS-  03310818262D

 26 27  0  0  0  0  0  0  0  0999 V2000
    3.3417   -4.0792    0.0000 S   0  0  3  0  0  0  0  0  0  0  0  0
    2.6292   -4.4875    0.0000 N   0  0  0  0  0  0  0  0  0  0  0  0
    4.0625   -3.6667    0.0000 C   0  0  0  0  0  0  0  0  0  0  0  0
    3.7542   -4.7917    0.0000 O   0  0  0  0  0  0  0  0  0  0  0  0
    2.9417   -3.3625    0.0000 O   0  0  0  0  0  0  0  0  0  0  0  0
    7.6292   -2.4167    0.0000 C   0  0  0  0  0  0  0  0  0  0  0  0
    8.3500   -2.8250    0.0000 N   0  0  0  0  0  0  0  0  0  0  0  0
    7.6292   -1.5917    0.0000 O   0  0  0  0  0  0  0  0  0  0  0  0
    4.7750   -4.0792    0.0000 C   0  0  0  0  0  0  0  0  0  0  0  0
    4.0625   -2.8375    0.0000 C   0  0  0  0  0  0  0  0  0  0  0  0
    9.0500   -2.4042    0.0000 C   0  0  0  0  0  0  0  0  0  0  0  0
    6.9167   -2.8292    0.0000 C   0  0  0  0  0  0  0  0  0  0  0  0
    1.9167   -4.0667    0.0000 C   0  0  0  0  0  0  0  0  0  0  0  0
   10.4500   -1.5625    0.0000 C   0  0  0  0  0  0  0  0  0  0  0  0
    5.4917   -2.8375    0.0000 C   0  0  0  0  0  0  0  0  0  0  0  0
    4.7750   -2.4250    0.0000 C   0  0  0  0  0  0  0  0  0  0  0  0
    5.4917   -3.6667    0.0000 C   0  0  0  0  0  0  0  0  0  0  0  0
   11.1542   -1.1417    0.0000 Br  0  0  0  0  0  0  0  0  0  0  0  0
    6.2042   -2.4167    0.0000 C   0  0  0  0  0  0  0  0  0  0  0  0
    9.0292   -1.5875    0.0000 C   0  0  0  0  0  0  0  0  0  0  0  0
    9.7625   -2.8000    0.0000 C   0  0  0  0  0  0  0  0  0  0  0  0
   10.4542   -2.3792    0.0000 C   0  0  0  0  0  0  0  0  0  0  0  0
    9.7292   -1.1667    0.0000 C   0  0  0  0  0  0  0  0  0  0  0  0
    1.2000   -4.4667    0.0000 C   0  0  3  0  0  0  0  0  0  0  0  0
    0.4875   -4.0542    0.0000 C   0  0  0  0  0  0  0  0  0  0  0  0
    1.1917   -5.2917    0.0000 C   0  0  0  0  0  0  0  0  0  0  0  0
  2  1  1  0  0  0  0
  3  1  1  0  0  0  0
  4  1  2  0  0  0  0
  5  1  2  0  0  0  0
  6 12  1  0  0  0  0
  7  6  1  0  0  0  0
  8  6  2  0  0  0  0
  9  3  1  0  0  0  0
 10  3  2  0  0  0  0
 11  7  1  0  0  0  0
 12 19  1  0  0  0  0
 13  2  1  0  0  0  0
 14 22  2  0  0  0  0
 15 16  2  0  0  0  0
 16 10  1  0  0  0  0
 17  9  2  0  0  0  0
 18 14  1  0  0  0  0
 19 15  1  0  0  0  0
 20 11  1  0  0  0  0
 21 11  2  0  0  0  0
 22 21  1  0  0  0  0
 23 20  2  0  0  0  0
 24 13  1  0  0  0  0
 25 24  1  0  0  0  0
 26 24  1  0  0  0  0
 15 17  1  0  0  0  0
 23 14  1  0  0  0  0
M  END
>  <ID> (7667656)
7667656

>  <Supplier> (7667656)
ChemBridge

>  <clogP> (7667656)
4.614999999999996e+000

>  <RB> (7667656)
6

>  <tPSA> (7667656)
7.527000000000000e+001

>  <Hacc> (7667656)
4

>  <Hdon> (7667656)
2

>  <LogSw> (7667656)
-6.186999999999999e+000

>  <Group> (7667656)
1

>  <Core> (7667656)
484

$$$$
7667657
  -ISIS-  03310818262D

 31 35  0  0  0  0  0  0  0  0999 V2000
    3.3500   -1.0250    0.0000 C   0  0  0  0  0  0  0  0  0  0  0  0
    4.1750   -1.0250    0.0000 C   0  0  0  0  0  0  0  0  0  0  0  0
    2.8625   -1.7000    0.0000 N   0  0  0  0  0  0  0  0  0  0  0  0
    4.5875   -0.3125    0.0000 C   0  0  0  0  0  0  0  0  0  0  0  0
    2.8667   -0.3542    0.0000 N   0  0  0  0  0  0  0  0  0  0  0  0
    5.4167   -0.3042    0.0000 C   0  0  0  0  0  0  0  0  0  0  0  0
    4.5875   -1.7417    0.0000 C   0  0  0  0  0  0  0  0  0  0  0  0
    2.0667   -1.4417    0.0000 C   0  0  0  0  0  0  0  0  0  0  0  0
    2.0667   -0.6125    0.0000 C   0  0  0  0  0  0  0  0  0  0  0  0
    5.8292   -1.0167    0.0000 C   0  0  0  0  0  0  0  0  0  0  0  0
    5.0000   -2.4500    0.0000 N   0  0  0  0  0  0  0  0  0  0  0  0
    5.8375    0.4125    0.0000 C   0  0  0  0  0  0  0  0  0  0  0  0
    5.4250    1.1333    0.0000 O   0  0  0  0  0  0  0  0  0  0  0  0
    6.6625   -1.0250    0.0000 C   0  0  0  0  0  0  0  0  0  0  0  0
    6.6667    0.4125    0.0000 C   0  0  0  0  0  0  0  0  0  0  0  0
    7.0750   -0.3042    0.0000 C   0  0  0  0  0  0  0  0  0  0  0  0
    5.8417    1.8583    0.0000 C   0  0  0  0  0  0  0  0  0  0  0  0
    6.6792    1.8500    0.0000 C   0  0  0  0  0  0  0  0  0  0  0  0
    5.4167   -1.7375    0.0000 C   0  0  0  0  0  0  0  0  0  0  0  0
    1.3542   -1.8542    0.0000 C   0  0  0  0  0  0  0  0  0  0  0  0
    1.3542   -0.2000    0.0000 C   0  0  0  0  0  0  0  0  0  0  0  0
    7.0750   -1.7417    0.0000 C   0  0  0  0  0  0  0  0  0  0  0  0
    7.0792    1.1208    0.0000 C   0  0  0  0  0  0  0  0  0  0  0  0
    7.0875    2.5708    0.0000 C   0  0  0  0  0  0  0  0  0  0  0  0
    5.8292   -2.4500    0.0000 C   0  0  0  0  0  0  0  0  0  0  0  0
    0.6417   -1.4417    0.0000 C   0  0  0  0  0  0  0  0  0  0  0  0
    0.6417   -0.6125    0.0000 C   0  0  0  0  0  0  0  0  0  0  0  0
    6.6542   -2.4542    0.0000 C   0  0  0  0  0  0  0  0  0  0  0  0
    7.9250    1.1208    0.0000 C   0  0  0  0  0  0  0  0  0  0  0  0
    7.9375    2.5625    0.0000 C   0  0  0  0  0  0  0  0  0  0  0  0
    8.3417    1.8333    0.0000 C   0  0  0  0  0  0  0  0  0  0  0  0
  2  1  1  0  0  0  0
  3  1  2  0  0  0  0
  4  2  2  0  0  0  0
  5  1  1  0  0  0  0
  6  4  1  0  0  0  0
  7  2  1  0  0  0  0
  8  3  1  0  0  0  0
  9  5  1  0  0  0  0
 10  6  1  0  0  0  0
 11  7  3  0  0  0  0
 12  6  2  0  0  0  0
 13 12  1  0  0  0  0
 14 10  1  0  0  0  0
 15 12  1  0  0  0  0
 16 15  2  0  0  0  0
 17 13  1  0  0  0  0
 18 17  1  0  0  0  0
 19 10  2  0  0  0  0
 20  8  2  0  0  0  0
 21  9  2  0  0  0  0
 22 14  2  0  0  0  0
 23 18  2  0  0  0  0
 24 18  1  0  0  0  0
 25 19  1  0  0  0  0
 26 20  1  0  0  0  0
 27 21  1  0  0  0  0
 28 25  2  0  0  0  0
 29 23  1  0  0  0  0
 30 24  2  0  0  0  0
 31 30  1  0  0  0  0
  8  9  1  0  0  0  0
 26 27  2  0  0  0  0
 16 14  1  0  0  0  0
 22 28  1  0  0  0  0
 31 29  2  0  0  0  0
M  END
>  <ID> (7667657)
7667657

>  <Supplier> (7667657)
ChemBridge

>  <clogP> (7667657)
5.741000000000001e+000

>  <RB> (7667657)
5

>  <tPSA> (7667657)
6.170000000000000e+001

>  <Hacc> (7667657)
3

>  <Hdon> (7667657)
1

>  <LogSw> (7667657)
-8.462000000000003e+000

>  <Group> (7667657)
1

>  <Core> (7667657)
112

$$$$
5675260
  -ISIS-  03310818222D

 19 21  0  0  0  0  0  0  0  0999 V2000
   -0.8333    1.1833    0.0000 C   0  0  0  0  0  0  0  0  0  0  0  0
   -1.4958    1.7208    0.0000 S   0  0  0  0  0  0  0  0  0  0  0  0
   -2.1958    1.2625    0.0000 C   0  0  0  0  0  0  0  0  0  0  0  0
   -1.9708    0.4458    0.0000 N   0  0  0  0  0  0  0  0  0  0  0  0
    3.6292    2.7833    0.0000 N   0  0  0  0  0  0  0  0  0  0  0  0
   -1.1333    0.3833    0.0000 C   0  0  0  0  0  0  0  0  0  0  0  0
    2.7875    3.8458    0.0000 S   0  0  0  0  0  0  0  0  0  0  0  0
    0.0042    1.3208    0.0000 N   0  0  0  0  0  0  0  0  0  0  0  0
    3.5875    3.6458    0.0000 C   0  0  0  0  0  0  0  0  0  0  0  0
    2.3292    3.1458    0.0000 C   0  0  0  0  0  0  0  0  0  0  0  0
    2.8500    2.4833    0.0000 C   0  0  0  0  0  0  0  0  0  0  0  0
    0.3292    2.1000    0.0000 N   0  0  0  0  0  0  0  0  0  0  0  0
    1.4875    3.0208    0.0000 C   0  0  0  0  0  0  0  0  0  0  0  0
    1.1667    2.2458    0.0000 C   0  0  0  0  0  0  0  0  0  0  0  0
   -2.9958    1.5625    0.0000 N   0  0  0  0  0  0  0  0  0  0  0  0
    2.5500    1.7000    0.0000 C   0  0  0  0  0  0  0  0  0  0  0  0
    1.7042    1.5833    0.0000 C   0  0  0  0  0  0  0  0  0  0  0  0
   -0.6708   -0.3542    0.0000 C   0  0  0  0  0  0  0  0  0  0  0  0
    4.1875    3.9458    0.0000 C   0  0  0  0  0  0  0  0  0  0  0  0
  2  1  1  0  0  0  0
  3  2  1  0  0  0  0
  4  6  1  0  0  0  0
  5 11  1  0  0  0  0
  6  1  2  0  0  0  0
  7 10  1  0  0  0  0
  8  1  1  0  0  0  0
  9  7  1  0  0  0  0
 10 13  1  0  0  0  0
 11 16  1  0  0  0  0
 12  8  2  0  0  0  0
 13 14  2  0  0  0  0
 14 12  1  0  0  0  0
 15  3  1  0  0  0  0
 16 17  2  0  0  0  0
 17 14  1  0  0  0  0
 18  6  1  0  0  0  0
 19  9  1  0  0  0  0
  4  3  2  0  0  0  0
 11 10  2  0  0  0  0
  9  5  2  0  0  0  0
M  END
>  <ID> (5675260)
5675260

>  <Supplier> (5675260)
ChemBridge

>  <clogP> (5675260)
3.030000000000000e+000

>  <RB> (5675260)
2

>  <tPSA> (5675260)
7.652000000000000e+001

>  <Hacc> (5675260)
4

>  <Hdon> (5675260)
1

>  <LogSw> (5675260)
-4.330000000000000e+000

>  <Group> (5675260)
3

>  <Core> (5675260)
226

$$$$
5212482
  -ISIS-  03310818212D

 25 27  0  0  0  0  0  0  0  0999 V2000
   -0.3708   -1.0875    0.0000 C   0  0  0  0  0  0  0  0  0  0  0  0
   -0.3708   -1.9292    0.0000 C   0  0  0  0  0  0  0  0  0  0  0  0
   -1.0958   -2.3292    0.0000 N   0  0  0  0  0  0  0  0  0  0  0  0
   -1.0958   -0.6875    0.0000 C   0  0  0  0  0  0  0  0  0  0  0  0
   -1.8125   -1.9292    0.0000 C   0  0  0  0  0  0  0  0  0  0  0  0
   -1.8125   -1.0875    0.0000 C   0  0  0  0  0  0  0  0  0  0  0  0
   -2.5333   -2.3292    0.0000 C   0  0  3  0  0  0  0  0  0  0  0  0
    0.3500   -0.6667    0.0000 C   0  0  0  0  0  0  0  0  0  0  0  0
    1.0667   -0.2292    0.0000 N   0  0  0  0  0  0  0  0  0  0  0  0
   -3.0500   -2.9667    0.0000 C   0  0  0  0  0  0  0  0  0  0  0  0
   -3.3500   -2.1875    0.0000 C   0  0  0  0  0  0  0  0  0  0  0  0
    0.3500   -2.3500    0.0000 S   0  0  0  0  0  0  0  0  0  0  0  0
   -1.0958    0.1333    0.0000 C   0  0  0  0  0  0  0  0  0  0  0  0
    1.7875   -2.3667    0.0000 C   0  0  0  0  0  0  0  0  0  0  0  0
    1.7667   -3.2042    0.0000 O   0  0  0  0  0  0  0  0  0  0  0  0
    1.0667   -1.9500    0.0000 C   0  0  0  0  0  0  0  0  0  0  0  0
   -1.8125    0.5500    0.0000 C   0  0  0  0  0  0  0  0  0  0  0  0
   -0.3708    0.5500    0.0000 C   0  0  0  0  0  0  0  0  0  0  0  0
   -1.0958    1.7958    0.0000 C   0  0  0  0  0  0  0  0  0  0  0  0
   -1.8125    1.3708    0.0000 C   0  0  0  0  0  0  0  0  0  0  0  0
   -0.3708    1.3958    0.0000 C   0  0  0  0  0  0  0  0  0  0  0  0
    2.5042   -1.9667    0.0000 O   0  0  0  0  0  0  0  0  0  0  0  0
   -1.0708    2.6333    0.0000 F   0  0  0  0  0  0  0  0  0  0  0  0
    3.2042   -2.4042    0.0000 C   0  0  0  0  0  0  0  0  0  0  0  0
    3.9292   -2.0042    0.0000 C   0  0  0  0  0  0  0  0  0  0  0  0
  2  1  1  0  0  0  0
  3  2  2  0  0  0  0
  4  1  2  0  0  0  0
  5  6  2  0  0  0  0
  6  4  1  0  0  0  0
  7  5  1  0  0  0  0
  8  1  1  0  0  0  0
  9  8  3  0  0  0  0
 10  7  1  0  0  0  0
 11  7  1  0  0  0  0
 12  2  1  0  0  0  0
 13  4  1  0  0  0  0
 14 16  1  0  0  0  0
 15 14  2  0  0  0  0
 16 12  1  0  0  0  0
 17 13  2  0  0  0  0
 18 13  1  0  0  0  0
 19 21  1  0  0  0  0
 20 17  1  0  0  0  0
 21 18  2  0  0  0  0
 22 14  1  0  0  0  0
 23 19  1  0  0  0  0
 24 22  1  0  0  0  0
 25 24  1  0  0  0  0
  5  3  1  0  0  0  0
 20 19  2  0  0  0  0
 11 10  1  0  0  0  0
M  END
>  <ID> (5212482)
5212482

>  <Supplier> (5212482)
ChemBridge

>  <clogP> (5212482)
4.290000000000000e+000

>  <RB> (5212482)
5

>  <tPSA> (5212482)
6.298000000000000e+001

>  <Hacc> (5212482)
4

>  <Hdon> (5212482)
0

>  <LogSw> (5212482)
-5.726999999999999e+000

>  <Group> (5212482)
3

>  <Core> (5212482)
042

$$$$
5212481
  -ISIS-  03310818212D

 19 21  0  0  0  0  0  0  0  0999 V2000
   -0.3708   -1.0875    0.0000 C   0  0  0  0  0  0  0  0  0  0  0  0
   -1.0958   -0.6875    0.0000 C   0  0  0  0  0  0  0  0  0  0  0  0
   -0.3708   -1.9292    0.0000 C   0  0  0  0  0  0  0  0  0  0  0  0
   -1.8125   -1.9292    0.0000 C   0  0  0  0  0  0  0  0  0  0  0  0
   -1.0958   -2.3292    0.0000 N   0  0  0  0  0  0  0  0  0  0  0  0
   -1.8125   -1.0875    0.0000 C   0  0  0  0  0  0  0  0  0  0  0  0
   -2.5333   -2.3292    0.0000 C   0  0  3  0  0  0  0  0  0  0  0  0
    0.3500   -0.6667    0.0000 C   0  0  0  0  0  0  0  0  0  0  0  0
    1.0667   -0.2292    0.0000 N   0  0  0  0  0  0  0  0  0  0  0  0
   -3.0500   -2.9667    0.0000 C   0  0  0  0  0  0  0  0  0  0  0  0
   -3.3500   -2.1875    0.0000 C   0  0  0  0  0  0  0  0  0  0  0  0
   -1.0958    0.1333    0.0000 C   0  0  0  0  0  0  0  0  0  0  0  0
    0.3500   -2.3500    0.0000 S   0  0  0  0  0  0  0  0  0  0  0  0
   -1.8125    0.5500    0.0000 C   0  0  0  0  0  0  0  0  0  0  0  0
   -0.3708    0.5500    0.0000 C   0  0  0  0  0  0  0  0  0  0  0  0
   -1.0958    1.7958    0.0000 C   0  0  0  0  0  0  0  0  0  0  0  0
   -1.8125    1.3708    0.0000 C   0  0  0  0  0  0  0  0  0  0  0  0
   -0.3708    1.3958    0.0000 C   0  0  0  0  0  0  0  0  0  0  0  0
   -1.0708    2.6333    0.0000 F   0  0  0  0  0  0  0  0  0  0  0  0
  2  1  2  0  0  0  0
  3  1  1  0  0  0  0
  4  5  1  0  0  0  0
  5  3  1  0  0  0  0
  6  2  1  0  0  0  0
  7  4  1  0  0  0  0
  8  1  1  0  0  0  0
  9  8  3  0  0  0  0
 10  7  1  0  0  0  0
 11  7  1  0  0  0  0
 12  2  1  0  0  0  0
 13  3  2  0  0  0  0
 14 12  2  0  0  0  0
 15 12  1  0  0  0  0
 16 18  1  0  0  0  0
 17 14  1  0  0  0  0
 18 15  2  0  0  0  0
 19 16  1  0  0  0  0
  4  6  2  0  0  0  0
 16 17  2  0  0  0  0
 10 11  1  0  0  0  0
M  END
>  <ID> (5212481)
5212481

>  <Supplier> (5212481)
ChemBridge

>  <clogP> (5212481)
2.270000000000000e+000

>  <RB> (5212481)
2

>  <tPSA> (5212481)
3.958000000000000e+001

>  <Hacc> (5212481)
1

>  <Hdon> (5212481)
1

>  <LogSw> (5212481)
-3.375999999999999e+000

>  <Group> (5212481)
3

$$$$
5212480
  -ISIS-  03310818212D

 27 30  0  0  0  0  0  0  0  0999 V2000
    0.0542   -0.7000    0.0000 C   0  0  0  0  0  0  0  0  0  0  0  0
    0.8375   -1.1542    0.0000 N   0  0  0  0  0  0  0  0  0  0  0  0
    1.6167    0.2208    0.0000 C   0  0  0  0  0  0  0  0  0  0  0  0
    0.0542    0.2000    0.0000 C   0  0  0  0  0  0  0  0  0  0  0  0
    1.6167   -0.7167    0.0000 C   0  0  0  0  0  0  0  0  0  0  0  0
    0.8375    0.6625    0.0000 C   0  0  0  0  0  0  0  0  0  0  0  0
   -0.7833   -0.9792    0.0000 C   0  0  0  0  0  0  0  0  0  0  0  0
    0.8375    1.5625    0.0000 C   0  0  0  0  0  0  0  0  0  0  0  0
   -1.0833   -1.8375    0.0000 C   0  0  0  0  0  0  0  0  0  0  0  0
    2.4000    0.7000    0.0000 C   0  0  0  0  0  0  0  0  0  0  0  0
    3.1792    1.1833    0.0000 N   0  0  0  0  0  0  0  0  0  0  0  0
   -0.7833    0.4833    0.0000 C   0  0  0  0  0  0  0  0  0  0  0  0
   -1.9833   -2.0167    0.0000 C   0  0  0  0  0  0  0  0  0  0  0  0
    2.4000   -1.2000    0.0000 S   0  0  0  0  0  0  0  0  0  0  0  0
    1.5375    2.1208    0.0000 O   0  0  0  0  0  0  0  0  0  0  0  0
   -1.3000   -0.2542    0.0000 C   0  0  0  0  0  0  0  0  0  0  0  0
    3.9792   -1.2375    0.0000 C   0  0  0  0  0  0  0  0  0  0  0  0
   -2.4458   -2.7792    0.0000 O   0  0  0  0  0  0  0  0  0  0  0  0
    0.1000    2.0458    0.0000 C   0  0  0  0  0  0  0  0  0  0  0  0
   -2.5625   -1.3375    0.0000 C   0  0  0  0  0  0  0  0  0  0  0  0
    1.2167    2.9458    0.0000 C   0  0  0  0  0  0  0  0  0  0  0  0
   -3.3208   -2.5792    0.0000 C   0  0  0  0  0  0  0  0  0  0  0  0
    0.3375    2.9208    0.0000 C   0  0  0  0  0  0  0  0  0  0  0  0
   -3.3833   -1.6792    0.0000 C   0  0  0  0  0  0  0  0  0  0  0  0
    3.9375   -2.1375    0.0000 O   0  0  0  0  0  0  0  0  0  0  0  0
    3.2000   -0.7542    0.0000 C   0  0  0  0  0  0  0  0  0  0  0  0
    4.7542   -0.8167    0.0000 N   0  0  0  0  0  0  0  0  0  0  0  0
  2  1  2  0  0  0  0
  3  6  1  0  0  0  0
  4  1  1  0  0  0  0
  5  2  1  0  0  0  0
  6  4  2  0  0  0  0
  7  1  1  0  0  0  0
  8  6  1  0  0  0  0
  9  7  2  0  0  0  0
 10  3  1  0  0  0  0
 11 10  3  0  0  0  0
 12  4  1  0  0  0  0
 13  9  1  0  0  0  0
 14  5  1  0  0  0  0
 15  8  1  0  0  0  0
 16  7  1  0  0  0  0
 17 26  1  0  0  0  0
 18 13  1  0  0  0  0
 19  8  2  0  0  0  0
 20 13  2  0  0  0  0
 21 15  1  0  0  0  0
 22 18  1  0  0  0  0
 23 19  1  0  0  0  0
 24 20  1  0  0  0  0
 25 17  2  0  0  0  0
 26 14  1  0  0  0  0
 27 17  1  0  0  0  0
 12 16  1  0  0  0  0
  3  5  2  0  0  0  0
 24 22  2  0  0  0  0
 23 21  2  0  0  0  0
M  END
>  <ID> (5212480)
5212480

>  <Supplier> (5212480)
ChemBridge

>  <clogP> (5212480)
2.760000000000000e+000

>  <RB> (5212480)
5

>  <tPSA> (5212480)
1.060500000000000e+002

>  <Hacc> (5212480)
5

>  <Hdon> (5212480)
1

>  <LogSw> (5212480)
-4.574000000000000e+000

>  <Group> (5212480)
1

>  <Core> (5212480)
022

$$$$
9115289
  -ISIS-  03310818292D

 27 30  0  0  0  0  0  0  0  0999 V2000
    6.9625    2.7458    0.0000 N   0  0  3  0  0  0  0  0  0  0  0  0
    6.2292    2.5958    0.0000 C   0  0  0  0  0  0  0  0  0  0  0  0
    3.6875    3.1333    0.0000 C   0  0  0  0  0  0  0  0  0  0  0  0
    6.1500    1.8458    0.0000 N   0  0  0  0  0  0  0  0  0  0  0  0
    6.8375    1.5458    0.0000 N   0  0  0  0  0  0  0  0  0  0  0  0
    7.3375    2.0958    0.0000 N   0  0  0  0  0  0  0  0  0  0  0  0
    3.0792    3.5708    0.0000 C   0  0  0  0  0  0  0  0  0  0  0  0
    2.4750    3.1333    0.0000 N   0  0  3  0  0  0  0  0  0  0  0  0
    3.4542    2.4208    0.0000 C   0  0  0  0  0  0  0  0  0  0  0  0
    2.7042    2.4208    0.0000 C   0  0  0  0  0  0  0  0  0  0  0  0
    5.6667    3.0958    0.0000 S   0  0  0  0  0  0  0  0  0  0  0  0
    4.4000    3.3625    0.0000 C   0  0  0  0  0  0  0  0  0  0  0  0
    7.2667    3.4333    0.0000 C   0  0  0  0  0  0  0  0  0  0  0  0
    4.9542    2.8625    0.0000 C   0  0  0  0  0  0  0  0  0  0  0  0
    4.5542    4.0917    0.0000 O   0  0  0  0  0  0  0  0  0  0  0  0
    1.7625    3.3625    0.0000 C   0  0  0  0  0  0  0  0  0  0  0  0
    3.8292    1.7708    0.0000 C   0  0  0  0  0  0  0  0  0  0  0  0
    2.3292    1.7708    0.0000 C   0  0  0  0  0  0  0  0  0  0  0  0
    8.0125    3.5208    0.0000 C   0  0  0  0  0  0  0  0  0  0  0  0
    6.8250    4.0292    0.0000 C   0  0  0  0  0  0  0  0  0  0  0  0
    1.6042    4.0917    0.0000 C   0  0  0  0  0  0  0  0  0  0  0  0
    3.4542    1.1208    0.0000 C   0  0  0  0  0  0  0  0  0  0  0  0
    2.7042    1.1208    0.0000 C   0  0  0  0  0  0  0  0  0  0  0  0
    0.8917    4.3250    0.0000 C   0  0  0  0  0  0  0  0  0  0  0  0
    7.1292    4.7167    0.0000 C   0  0  0  0  0  0  0  0  0  0  0  0
    8.3167    4.1917    0.0000 C   0  0  0  0  0  0  0  0  0  0  0  0
    7.8792    4.7917    0.0000 C   0  0  0  0  0  0  0  0  0  0  0  0
  2  1  1  0  0  0  0
  3 12  1  0  0  0  0
  4  2  2  0  0  0  0
  5  6  2  0  0  0  0
  6  1  1  0  0  0  0
  7  3  2  0  0  0  0
  8  7  1  0  0  0  0
  9  3  1  0  0  0  0
 10  9  2  0  0  0  0
 11  2  1  0  0  0  0
 12 14  1  0  0  0  0
 13  1  1  0  0  0  0
 14 11  1  0  0  0  0
 15 12  2  0  0  0  0
 16  8  1  0  0  0  0
 17  9  1  0  0  0  0
 18 10  1  0  0  0  0
 19 13  2  0  0  0  0
 20 13  1  0  0  0  0
 21 16  1  0  0  0  0
 22 17  2  0  0  0  0
 23 22  1  0  0  0  0
 24 21  1  0  0  0  0
 25 20  2  0  0  0  0
 26 19  1  0  0  0  0
 27 25  1  0  0  0  0
  5  4  1  0  0  0  0
 27 26  2  0  0  0  0
 10  8  1  0  0  0  0
 23 18  2  0  0  0  0
M  END
>  <ID> (9115289)
9115289

>  <Supplier> (9115289)
ChemBridge

>  <clogP> (9115289)
4.459000000000001e+000

>  <RB> (9115289)
5

>  <tPSA> (9115289)
6.559999999999999e+001

>  <Hacc> (9115289)
4

>  <Hdon> (9115289)
0

>  <LogSw> (9115289)
-5.159999999999998e+000

>  <Group> (9115289)
2

$$$$
7511528
  -ISIS-  03310818262D

 22 23  0  0  0  0  0  0  0  0999 V2000
    1.8792   -0.5250    0.0000 S   0  0  3  0  0  0  0  0  0  0  0  0
    2.5917   -0.1042    0.0000 N   0  0  3  0  0  0  0  0  0  0  0  0
    4.7292    1.1458    0.0000 C   0  0  0  0  0  0  0  0  0  0  0  0
    6.1417    1.1583    0.0000 C   0  0  0  0  0  0  0  0  0  0  0  0
    5.4417    0.7333    0.0000 N   0  0  0  0  0  0  0  0  0  0  0  0
    6.1292    1.9750    0.0000 C   0  0  0  0  0  0  0  0  0  0  0  0
    7.5542    1.1833    0.0000 C   0  0  0  0  0  0  0  0  0  0  0  0
    6.8542    0.7625    0.0000 C   0  0  0  0  0  0  0  0  0  0  0  0
    6.8250    2.3958    0.0000 C   0  0  0  0  0  0  0  0  0  0  0  0
    7.5417    2.0000    0.0000 C   0  0  0  0  0  0  0  0  0  0  0  0
    2.2875   -1.2375    0.0000 O   0  0  0  0  0  0  0  0  0  0  0  0
    1.4625    0.1958    0.0000 O   0  0  0  0  0  0  0  0  0  0  0  0
    4.0125    0.7250    0.0000 C   0  0  3  0  0  0  0  0  0  0  0  0
    3.3042   -0.5167    0.0000 C   0  0  0  0  0  0  0  0  0  0  0  0
    2.5792    0.7208    0.0000 C   0  0  0  0  0  0  0  0  0  0  0  0
    4.7250    1.9708    0.0000 O   0  0  0  0  0  0  0  0  0  0  0  0
    4.0167   -0.0917    0.0000 C   0  0  0  0  0  0  0  0  0  0  0  0
    3.2917    1.1333    0.0000 C   0  0  0  0  0  0  0  0  0  0  0  0
    1.1667   -0.9417    0.0000 C   0  0  0  0  0  0  0  0  0  0  0  0
    6.8667   -0.0542    0.0000 Cl  0  0  0  0  0  0  0  0  0  0  0  0
    8.2500    2.4208    0.0000 Cl  0  0  0  0  0  0  0  0  0  0  0  0
    6.8042    3.2208    0.0000 Cl  0  0  0  0  0  0  0  0  0  0  0  0
  2  1  1  0  0  0  0
  3 13  1  0  0  0  0
  4  5  1  0  0  0  0
  5  3  1  0  0  0  0
  6  4  1  0  0  0  0
  7  8  1  0  0  0  0
  8  4  2  0  0  0  0
  9  6  2  0  0  0  0
 10  7  2  0  0  0  0
 11  1  2  0  0  0  0
 12  1  2  0  0  0  0
 13 18  1  0  0  0  0
 14  2  1  0  0  0  0
 15  2  1  0  0  0  0
 16  3  2  0  0  0  0
 17 14  1  0  0  0  0
 18 15  1  0  0  0  0
 19  1  1  0  0  0  0
 20  8  1  0  0  0  0
 21 10  1  0  0  0  0
 22  9  1  0  0  0  0
 13 17  1  0  0  0  0
  9 10  1  0  0  0  0
M  END
>  <ID> (7511528)
7511528

>  <Supplier> (7511528)
ChemBridge

>  <clogP> (7511528)
1.967000000000000e+000

>  <RB> (7511528)
2

>  <tPSA> (7511528)
6.647999999999998e+001

>  <Hacc> (7511528)
4

>  <Hdon> (7511528)
1

>  <LogSw> (7511528)
-4.171000000000000e+000

>  <Group> (7511528)
3

>  <Core> (7511528)
050

$$$$
5939864
  -ISIS-  03310818232D

 24 25  0  0  0  0  0  0  0  0999 V2000
    2.7667   -4.8292    0.0000 S   0  0  3  0  0  0  0  0  0  0  0  0
    0.1750   -1.0875    0.0000 C   0  0  0  0  0  0  0  0  0  0  0  0
   -0.4708   -1.4625    0.0000 C   0  0  0  0  0  0  0  0  0  0  0  0
    0.8167   -1.4625    0.0000 C   0  0  0  0  0  0  0  0  0  0  0  0
    2.1125   -4.4542    0.0000 C   0  0  0  0  0  0  0  0  0  0  0  0
    0.1750   -2.5792    0.0000 C   0  0  0  0  0  0  0  0  0  0  0  0
    3.1417   -4.1750    0.0000 O   0  0  0  0  0  0  0  0  0  0  0  0
    2.3917   -5.4875    0.0000 O   0  0  0  0  0  0  0  0  0  0  0  0
   -0.4708   -2.2125    0.0000 C   0  0  0  0  0  0  0  0  0  0  0  0
    0.8167   -2.2125    0.0000 C   0  0  0  0  0  0  0  0  0  0  0  0
    0.1750   -3.3292    0.0000 N   0  0  0  0  0  0  0  0  0  0  0  0
    3.4250   -5.2042    0.0000 N   0  0  0  0  0  0  0  0  0  0  0  0
    1.4625   -4.8250    0.0000 C   0  0  0  0  0  0  0  0  0  0  0  0
    2.1125   -3.7042    0.0000 C   0  0  0  0  0  0  0  0  0  0  0  0
   -1.1250   -1.0750    0.0000 C   0  0  3  0  0  0  0  0  0  0  0  0
    1.4750   -1.0792    0.0000 C   0  0  3  0  0  0  0  0  0  0  0  0
    0.1750   -0.3417    0.0000 O   0  0  0  0  0  0  0  0  0  0  0  0
    0.8167   -3.7042    0.0000 C   0  0  0  0  0  0  0  0  0  0  0  0
    0.8167   -4.4542    0.0000 C   0  0  0  0  0  0  0  0  0  0  0  0
    1.4667   -3.3292    0.0000 C   0  0  0  0  0  0  0  0  0  0  0  0
   -1.1208   -0.3167    0.0000 C   0  0  0  0  0  0  0  0  0  0  0  0
   -1.7708   -1.4500    0.0000 C   0  0  0  0  0  0  0  0  0  0  0  0
    1.4667   -0.3292    0.0000 C   0  0  0  0  0  0  0  0  0  0  0  0
    2.1250   -1.4542    0.0000 C   0  0  0  0  0  0  0  0  0  0  0  0
  2  4  2  0  0  0  0
  3  9  2  0  0  0  0
  4 10  1  0  0  0  0
  5  1  1  0  0  0  0
  6 11  1  0  0  0  0
  7  1  2  0  0  0  0
  8  1  2  0  0  0  0
  9  6  1  0  0  0  0
 10  6  2  0  0  0  0
 11 18  1  0  0  0  0
 12  1  1  0  0  0  0
 13  5  2  0  0  0  0
 14  5  1  0  0  0  0
 15  3  1  0  0  0  0
 16  4  1  0  0  0  0
 17  2  1  0  0  0  0
 18 20  1  0  0  0  0
 19 13  1  0  0  0  0
 20 14  2  0  0  0  0
 21 15  1  0  0  0  0
 22 15  1  0  0  0  0
 23 16  1  0  0  0  0
 24 16  1  0  0  0  0
 19 18  2  0  0  0  0
  2  3  1  0  0  0  0
M  END
>  <ID> (5939864)
5939864

>  <Supplier> (5939864)
ChemBridge

>  <clogP> (5939864)
3.940000000000000e+000

>  <RB> (5939864)
3

>  <tPSA> (5939864)
9.241999999999999e+001

>  <Hacc> (5939864)
4

>  <Hdon> (5939864)
3

>  <LogSw> (5939864)
-5.106000000000000e+000

>  <Group> (5939864)
3

$$$$
9099051
  -ISIS-  03310818292D

 22 23  0  0  0  0  0  0  0  0999 V2000
   -1.0000    0.2875    0.0000 S   0  0  3  0  0  0  0  0  0  0  0  0
    0.0042    0.3083    0.0000 N   0  0  3  0  0  0  0  0  0  0  0  0
   -1.9958    0.2833    0.0000 C   0  0  0  0  0  0  0  0  0  0  0  0
    1.9625    0.2958    0.0000 N   0  0  3  0  0  0  0  0  0  0  0  0
    2.9542    0.2958    0.0000 C   0  0  0  0  0  0  0  0  0  0  0  0
   -2.4833   -0.5667    0.0000 C   0  0  0  0  0  0  0  0  0  0  0  0
   -0.9875   -0.7917    0.0000 O   0  0  0  0  0  0  0  0  0  0  0  0
   -0.9625    1.4458    0.0000 O   0  0  0  0  0  0  0  0  0  0  0  0
    0.5000    1.1458    0.0000 C   0  0  0  0  0  0  0  0  0  0  0  0
    0.5000   -0.5417    0.0000 C   0  0  0  0  0  0  0  0  0  0  0  0
   -3.4708   -0.5667    0.0000 C   0  0  0  0  0  0  0  0  0  0  0  0
    1.4792   -0.5500    0.0000 C   0  0  0  0  0  0  0  0  0  0  0  0
    1.4792    1.1458    0.0000 C   0  0  0  0  0  0  0  0  0  0  0  0
   -2.4875    1.1375    0.0000 C   0  0  0  0  0  0  0  0  0  0  0  0
   -3.9708    0.2833    0.0000 C   0  0  0  0  0  0  0  0  0  0  0  0
    3.4792    1.1458    0.0000 O   0  0  0  0  0  0  0  0  0  0  0  0
   -3.4833    1.1333    0.0000 C   0  0  0  0  0  0  0  0  0  0  0  0
    3.4667   -0.5792    0.0000 C   0  0  0  0  0  0  0  0  0  0  0  0
   -3.9708   -1.4375    0.0000 C   0  0  0  0  0  0  0  0  0  0  0  0
   -4.9708    0.2833    0.0000 C   0  0  0  0  0  0  0  0  0  0  0  0
    4.4625   -0.5792    0.0000 C   0  0  0  0  0  0  0  0  0  0  0  0
    4.9542    0.2750    0.0000 C   0  0  0  0  0  0  0  0  0  0  0  0
  2  1  1  0  0  0  0
  3  1  1  0  0  0  0
  4 12  1  0  0  0  0
  5  4  1  0  0  0  0
  6  3  1  0  0  0  0
  7  1  2  0  0  0  0
  8  1  2  0  0  0  0
  9  2  1  0  0  0  0
 10  2  1  0  0  0  0
 11  6  2  0  0  0  0
 12 10  1  0  0  0  0
 13  9  1  0  0  0  0
 14  3  2  0  0  0  0
 15 17  2  0  0  0  0
 16  5  2  0  0  0  0
 17 14  1  0  0  0  0
 18  5  1  0  0  0  0
 19 11  1  0  0  0  0
 20 15  1  0  0  0  0
 21 18  1  0  0  0  0
 22 21  1  0  0  0  0
  4 13  1  0  0  0  0
 11 15  1  0  0  0  0
M  END
>  <ID> (9099051)
9099051

>  <Supplier> (9099051)
ChemBridge

>  <clogP> (9099051)
2.870000000000000e+000

>  <RB> (9099051)
1

>  <tPSA> (9099051)
5.769000000000000e+001

>  <Hacc> (9099051)
4

>  <Hdon> (9099051)
0

>  <LogSw> (9099051)
-4.017000000000000e+000

>  <Group> (9099051)
2

>  <Core> (9099051)
170

$$$$
6141441
  -ISIS-  03310818232D

 27 30  0  0  0  0  0  0  0  0999 V2000
   -0.6208    0.0708    0.0000 N   0  0  3  0  0  0  0  0  0  0  0  0
   -1.4000   -0.2500    0.0000 C   0  0  0  0  0  0  0  0  0  0  0  0
   -0.0208   -0.6042    0.0000 C   0  0  0  0  0  0  0  0  0  0  0  0
   -1.3625   -1.1292    0.0000 C   0  0  0  0  0  0  0  0  0  0  0  0
   -0.5000   -1.3667    0.0000 C   0  0  0  0  0  0  0  0  0  0  0  0
   -0.4458    0.9708    0.0000 C   0  0  0  0  0  0  0  0  0  0  0  0
    3.1375   -1.0875    0.0000 N   0  0  3  0  0  0  0  0  0  0  0  0
    0.4167    1.2708    0.0000 C   0  0  0  0  0  0  0  0  0  0  0  0
    4.0000   -2.2292    0.0000 N   0  0  0  0  0  0  0  0  0  0  0  0
    4.5000   -1.5042    0.0000 N   0  0  0  0  0  0  0  0  0  0  0  0
    3.9792   -0.7875    0.0000 C   0  0  0  0  0  0  0  0  0  0  0  0
    3.1375   -1.9667    0.0000 C   0  0  0  0  0  0  0  0  0  0  0  0
    2.4542   -0.5042    0.0000 N   0  0  0  0  0  0  0  0  0  0  0  0
   -2.1625    0.2958    0.0000 O   0  0  0  0  0  0  0  0  0  0  0  0
    0.8792   -0.5500    0.0000 O   0  0  0  0  0  0  0  0  0  0  0  0
    0.6000    2.1500    0.0000 C   0  0  0  0  0  0  0  0  0  0  0  0
    1.1000    0.6958    0.0000 C   0  0  0  0  0  0  0  0  0  0  0  0
    2.6167    0.3958    0.0000 C   0  0  0  0  0  0  0  0  0  0  0  0
    1.4375    2.4583    0.0000 C   0  0  0  0  0  0  0  0  0  0  0  0
    1.9375    0.9958    0.0000 C   0  0  0  0  0  0  0  0  0  0  0  0
    2.1000    1.8708    0.0000 C   0  0  0  0  0  0  0  0  0  0  0  0
   -0.2625   -2.2292    0.0000 C   0  0  0  0  0  0  0  0  0  0  0  0
   -1.9833   -1.7667    0.0000 C   0  0  0  0  0  0  0  0  0  0  0  0
   -0.1000    2.7500    0.0000 O   0  0  0  0  0  0  0  0  0  0  0  0
   -0.9625    2.4708    0.0000 C   0  0  0  0  0  0  0  0  0  0  0  0
   -1.7458   -2.6292    0.0000 C   0  0  0  0  0  0  0  0  0  0  0  0
   -0.8833   -2.8500    0.0000 C   0  0  0  0  0  0  0  0  0  0  0  0
  2  1  1  0  0  0  0
  3  1  1  0  0  0  0
  4  2  1  0  0  0  0
  5  3  1  0  0  0  0
  6  1  1  0  0  0  0
  7 13  1  0  0  0  0
  8  6  1  0  0  0  0
  9 12  2  0  0  0  0
 10 11  2  0  0  0  0
 11  7  1  0  0  0  0
 12  7  1  0  0  0  0
 13 18  2  0  0  0  0
 14  2  2  0  0  0  0
 15  3  2  0  0  0  0
 16  8  1  0  0  0  0
 17  8  2  0  0  0  0
 18 20  1  0  0  0  0
 19 16  2  0  0  0  0
 20 17  1  0  0  0  0
 21 20  2  0  0  0  0
 22  5  1  0  0  0  0
 23  4  1  0  0  0  0
 24 16  1  0  0  0  0
 25 24  1  0  0  0  0
 26 23  2  0  0  0  0
 27 22  2  0  0  0  0
  4  5  2  0  0  0  0
 26 27  1  0  0  0  0
 19 21  1  0  0  0  0
 10  9  1  0  0  0  0
M  END
>  <ID> (6141441)
6141441

>  <Supplier> (6141441)
ChemBridge

>  <clogP> (6141441)
1.520000000000000e+000

>  <RB> (6141441)
4

>  <tPSA> (6141441)
8.968000000000002e+001

>  <Hacc> (6141441)
7

>  <Hdon> (6141441)
0

>  <LogSw> (6141441)
-3.133000000000000e+000

>  <Group> (6141441)
3

$$$$
9099056
  -ISIS-  03310818292D

 19 20  0  0  0  0  0  0  0  0999 V2000
   -1.8833    0.8958    0.0000 C   0  0  0  0  0  0  0  0  0  0  0  0
   -2.8750    1.0125    0.0000 N   0  0  0  0  0  0  0  0  0  0  0  0
   -1.4875    1.8333    0.0000 C   0  0  0  0  0  0  0  0  0  0  0  0
   -1.3833    0.0333    0.0000 N   0  0  0  0  0  0  0  0  0  0  0  0
   -0.3833    0.0333    0.0000 C   0  0  0  0  0  0  0  0  0  0  0  0
   -3.0875    1.9833    0.0000 O   0  0  0  0  0  0  0  0  0  0  0  0
   -2.2000    2.4958    0.0000 C   0  0  0  0  0  0  0  0  0  0  0  0
    1.1042   -0.8375    0.0000 O   0  0  0  0  0  0  0  0  0  0  0  0
    1.5542   -1.7375    0.0000 C   0  0  0  0  0  0  0  0  0  0  0  0
    0.1042   -0.8375    0.0000 C   0  0  3  0  0  0  0  0  0  0  0  0
    0.1375    0.8958    0.0000 O   0  0  0  0  0  0  0  0  0  0  0  0
    2.5667   -1.7375    0.0000 C   0  0  0  0  0  0  0  0  0  0  0  0
    3.0292   -0.8667    0.0000 Br  0  0  0  0  0  0  0  0  0  0  0  0
   -2.0583    3.4833    0.0000 C   0  0  0  0  0  0  0  0  0  0  0  0
    1.0750   -2.5667    0.0000 C   0  0  0  0  0  0  0  0  0  0  0  0
   -0.4000   -1.6875    0.0000 C   0  0  0  0  0  0  0  0  0  0  0  0
    3.0792   -2.6417    0.0000 C   0  0  0  0  0  0  0  0  0  0  0  0
    1.5250   -3.4375    0.0000 C   0  0  0  0  0  0  0  0  0  0  0  0
    2.5667   -3.4667    0.0000 C   0  0  0  0  0  0  0  0  0  0  0  0
  2  1  2  0  0  0  0
  3  1  1  0  0  0  0
  4  1  1  0  0  0  0
  5  4  1  0  0  0  0
  6  2  1  0  0  0  0
  7  3  2  0  0  0  0
  8 10  1  0  0  0  0
  9  8  1  0  0  0  0
 10  5  1  0  0  0  0
 11  5  2  0  0  0  0
 12  9  1  0  0  0  0
 13 12  1  0  0  0  0
 14  7  1  0  0  0  0
 15  9  2  0  0  0  0
 16 10  1  0  0  0  0
 17 12  2  0  0  0  0
 18 15  1  0  0  0  0
 19 18  2  0  0  0  0
  6  7  1  0  0  0  0
 17 19  1  0  0  0  0
M  END
>  <ID> (9099056)
9099056

>  <Supplier> (9099056)
ChemBridge

>  <clogP> (9099056)
2.811999999999999e+000

>  <RB> (9099056)
4

>  <tPSA> (9099056)
6.436000000000001e+001

>  <Hacc> (9099056)
4

>  <Hdon> (9099056)
1

>  <LogSw> (9099056)
-3.973000000000000e+000

>  <Group> (9099056)
2

>  <Core> (9099056)
315

$$$$
5172943
  -ISIS-  03310818212D

 21 22  0  0  0  0  0  0  0  0999 V2000
   -3.4958   -0.1167    0.0000 C   0  0  0  0  0  0  0  0  0  0  0  0
    4.1667   -0.1042    0.0000 N   0  3  0  0  0  0  0  0  0  0  0  0
   -4.5333    0.2333    0.0000 N   0  0  0  0  0  0  0  0  0  0  0  0
   -5.1833   -0.6542    0.0000 O   0  0  0  0  0  0  0  0  0  0  0  0
   -3.4958   -1.2167    0.0000 C   0  0  0  0  0  0  0  0  0  0  0  0
   -4.5333   -1.5500    0.0000 N   0  0  0  0  0  0  0  0  0  0  0  0
   -2.5333    0.4500    0.0000 C   0  0  0  0  0  0  0  0  0  0  0  0
   -1.5833   -0.1167    0.0000 N   0  0  0  0  0  0  0  0  0  0  0  0
    0.3500   -0.1167    0.0000 C   0  0  0  0  0  0  0  0  0  0  0  0
    3.2292    0.4500    0.0000 C   0  0  0  0  0  0  0  0  0  0  0  0
   -0.6208    0.4500    0.0000 O   0  0  0  0  0  0  0  0  0  0  0  0
    1.3167    0.4500    0.0000 C   0  0  0  0  0  0  0  0  0  0  0  0
    2.2667   -0.0875    0.0000 C   0  0  0  0  0  0  0  0  0  0  0  0
    4.2500   -1.2167    0.0000 O   0  5  0  0  0  0  0  0  0  0  0  0
    5.1542    0.3625    0.0000 O   0  0  0  0  0  0  0  0  0  0  0  0
    0.3500   -1.2167    0.0000 O   0  0  0  0  0  0  0  0  0  0  0  0
   -2.5958   -1.8792    0.0000 C   0  0  0  0  0  0  0  0  0  0  0  0
    3.2292    1.5500    0.0000 C   0  0  0  0  0  0  0  0  0  0  0  0
   -2.5333    1.5500    0.0000 C   0  0  0  0  0  0  0  0  0  0  0  0
    1.3167    1.5500    0.0000 C   0  0  0  0  0  0  0  0  0  0  0  0
    2.2667    2.1208    0.0000 C   0  0  0  0  0  0  0  0  0  0  0  0
  2 10  1  0  0  0  0
  3  1  2  0  0  0  0
  4  3  1  0  0  0  0
  5  1  1  0  0  0  0
  6  5  2  0  0  0  0
  7  1  1  0  0  0  0
  8  7  2  0  0  0  0
  9 11  1  0  0  0  0
 10 13  2  0  0  0  0
 11  8  1  0  0  0  0
 12  9  1  0  0  0  0
 13 12  1  0  0  0  0
 14  2  1  0  0  0  0
 15  2  2  0  0  0  0
 16  9  2  0  0  0  0
 17  5  1  0  0  0  0
 18 21  2  0  0  0  0
 19  7  1  0  0  0  0
 20 12  2  0  0  0  0
 21 20  1  0  0  0  0
  6  4  1  0  0  0  0
 18 10  1  0  0  0  0
M  CHG  2   2   1  14  -1
M  END
>  <ID> (5172943)
5172943

>  <Supplier> (5172943)
ChemBridge

>  <clogP> (5172943)
2.500000000000000e+000

>  <RB> (5172943)
4

>  <tPSA> (5172943)
1.207200000000000e+002

>  <Hacc> (5172943)
8

>  <Hdon> (5172943)
0

>  <LogSw> (5172943)
-3.842000000000000e+000

>  <Group> (5172943)
3

$$$$
7933372
  -ISIS-  03310818272D

 21 22  0  0  0  0  0  0  0  0999 V2000
    4.5500    2.1208    0.0000 C   0  0  0  0  0  0  0  0  0  0  0  0
    3.9000    2.4958    0.0000 N   0  0  0  0  0  0  0  0  0  0  0  0
    3.2500    2.1208    0.0000 C   0  0  0  0  0  0  0  0  0  0  0  0
    2.6000    2.4958    0.0000 C   0  0  0  0  0  0  0  0  0  0  0  0
    5.2000    2.4958    0.0000 C   0  0  3  0  0  0  0  0  0  0  0  0
    5.8500    2.1208    0.0000 O   0  0  0  0  0  0  0  0  0  0  0  0
    4.5500    1.3708    0.0000 O   0  0  0  0  0  0  0  0  0  0  0  0
    6.5000    2.4958    0.0000 C   0  0  0  0  0  0  0  0  0  0  0  0
    1.9500    2.1208    0.0000 C   0  0  0  0  0  0  0  0  0  0  0  0
    7.1500    2.1208    0.0000 C   0  0  0  0  0  0  0  0  0  0  0  0
    3.2500    1.3708    0.0000 C   0  0  0  0  0  0  0  0  0  0  0  0
    7.7917    2.4958    0.0000 C   0  0  0  0  0  0  0  0  0  0  0  0
    1.9500    1.3708    0.0000 C   0  0  0  0  0  0  0  0  0  0  0  0
    2.6000    0.9958    0.0000 C   0  0  0  0  0  0  0  0  0  0  0  0
    8.4417    2.1208    0.0000 Br  0  0  0  0  0  0  0  0  0  0  0  0
    7.1500    3.6208    0.0000 C   0  0  0  0  0  0  0  0  0  0  0  0
    2.6000    3.2458    0.0000 C   0  0  0  0  0  0  0  0  0  0  0  0
    6.5000    3.2458    0.0000 C   0  0  0  0  0  0  0  0  0  0  0  0
    5.2000    3.2458    0.0000 C   0  0  0  0  0  0  0  0  0  0  0  0
    7.7917    3.2458    0.0000 C   0  0  0  0  0  0  0  0  0  0  0  0
    1.3042    0.9958    0.0000 C   0  0  0  0  0  0  0  0  0  0  0  0
  2  1  1  0  0  0  0
  3  2  1  0  0  0  0
  4  3  1  0  0  0  0
  5  1  1  0  0  0  0
  6  5  1  0  0  0  0
  7  1  2  0  0  0  0
  8  6  1  0  0  0  0
  9  4  2  0  0  0  0
 10  8  1  0  0  0  0
 11  3  2  0  0  0  0
 12 10  2  0  0  0  0
 13 14  2  0  0  0  0
 14 11  1  0  0  0  0
 15 12  1  0  0  0  0
 16 18  1  0  0  0  0
 17  4  1  0  0  0  0
 18  8  2  0  0  0  0
 19  5  1  0  0  0  0
 20 16  2  0  0  0  0
 21 13  1  0  0  0  0
 13  9  1  0  0  0  0
 12 20  1  0  0  0  0
M  END
>  <ID> (7933372)
7933372

>  <Supplier> (7933372)
ChemBridge

>  <clogP> (7933372)
4.337000000000000e+000

>  <RB> (7933372)
4

>  <tPSA> (7933372)
3.833000000000000e+001

>  <Hacc> (7933372)
2

>  <Hdon> (7933372)
1

>  <LogSw> (7933372)
-5.443000000000001e+000

>  <Group> (7933372)
1

>  <Core> (7933372)
315

$$$$
9099059
  -ISIS-  03310818292D

 20 21  0  0  0  0  0  0  0  0999 V2000
    1.7667   -0.7542    0.0000 C   0  0  0  0  0  0  0  0  0  0  0  0
    1.2417    0.1083    0.0000 C   0  0  0  0  0  0  0  0  0  0  0  0
   -1.2625    1.0708    0.0000 C   0  0  0  0  0  0  0  0  0  0  0  0
   -0.2500    0.9625    0.0000 C   0  0  0  0  0  0  0  0  0  0  0  0
   -1.4375    2.0333    0.0000 C   0  0  0  0  0  0  0  0  0  0  0  0
    0.1667    1.8583    0.0000 N   0  0  0  0  0  0  0  0  0  0  0  0
    0.2417    0.1083    0.0000 N   0  0  0  0  0  0  0  0  0  0  0  0
   -0.6208    2.5458    0.0000 O   0  0  0  0  0  0  0  0  0  0  0  0
    2.7542   -0.7542    0.0000 C   0  0  0  0  0  0  0  0  0  0  0  0
   -2.3500    2.4375    0.0000 C   0  0  3  0  0  0  0  0  0  0  0  0
    1.2625   -1.6042    0.0000 C   0  0  0  0  0  0  0  0  0  0  0  0
    1.7500    0.9708    0.0000 O   0  0  0  0  0  0  0  0  0  0  0  0
    3.2542   -1.6042    0.0000 C   0  0  0  0  0  0  0  0  0  0  0  0
    1.7667   -2.4917    0.0000 C   0  0  0  0  0  0  0  0  0  0  0  0
    3.2417    0.1083    0.0000 Cl  0  0  0  0  0  0  0  0  0  0  0  0
    2.7667   -2.4917    0.0000 C   0  0  0  0  0  0  0  0  0  0  0  0
    1.2750   -3.3542    0.0000 Br  0  0  0  0  0  0  0  0  0  0  0  0
   -1.9500    3.3625    0.0000 C   0  0  0  0  0  0  0  0  0  0  0  0
   -2.7625    1.5083    0.0000 C   0  0  0  0  0  0  0  0  0  0  0  0
   -3.2583    2.8375    0.0000 C   0  0  0  0  0  0  0  0  0  0  0  0
  2  1  1  0  0  0  0
  3  4  1  0  0  0  0
  4  7  1  0  0  0  0
  5  3  2  0  0  0  0
  6  4  2  0  0  0  0
  7  2  1  0  0  0  0
  8  6  1  0  0  0  0
  9  1  1  0  0  0  0
 10  5  1  0  0  0  0
 11  1  2  0  0  0  0
 12  2  2  0  0  0  0
 13  9  2  0  0  0  0
 14 11  1  0  0  0  0
 15  9  1  0  0  0  0
 16 14  2  0  0  0  0
 17 14  1  0  0  0  0
 18 10  1  0  0  0  0
 19 10  1  0  0  0  0
 20 10  1  0  0  0  0
 16 13  1  0  0  0  0
  5  8  1  0  0  0  0
M  END
>  <ID> (9099059)
9099059

>  <Supplier> (9099059)
ChemBridge

>  <clogP> (9099059)
3.809000000000000e+000

>  <RB> (9099059)
3

>  <tPSA> (9099059)
5.513000000000000e+001

>  <Hacc> (9099059)
3

>  <Hdon> (9099059)
1

>  <LogSw> (9099059)
-5.060000000000000e+000

>  <Group> (9099059)
3

$$$$
6141449
  -ISIS-  03310818232D

 29 32  0  0  0  0  0  0  0  0999 V2000
    0.6667    0.2458    0.0000 N   0  0  3  0  0  0  0  0  0  0  0  0
    0.4667   -0.2542    0.0000 C   0  0  0  0  0  0  0  0  0  0  0  0
    0.2500    0.6000    0.0000 C   0  0  0  0  0  0  0  0  0  0  0  0
   -0.2333    0.3000    0.0000 C   0  0  0  0  0  0  0  0  0  0  0  0
   -0.0958   -0.2375    0.0000 S   0  0  0  0  0  0  0  0  0  0  0  0
   -0.7125    0.5625    0.0000 C   0  0  0  0  0  0  0  0  0  0  0  0
    1.2292    0.3833    0.0000 C   0  0  0  0  0  0  0  0  0  0  0  0
    2.5292   -0.3000    0.0000 N   0  0  0  0  0  0  0  0  0  0  0  0
    2.1500    0.1000    0.0000 C   0  0  0  0  0  0  0  0  0  0  0  0
    1.6042   -0.0167    0.0000 C   0  0  0  0  0  0  0  0  0  0  0  0
    0.7875   -0.7375    0.0000 S   0  0  0  0  0  0  0  0  0  0  0  0
   -2.1500    0.2458    0.0000 C   0  0  0  0  0  0  0  0  0  0  0  0
    3.0542   -0.1792    0.0000 C   0  0  0  0  0  0  0  0  0  0  0  0
   -2.1500   -0.3167    0.0000 C   0  0  0  0  0  0  0  0  0  0  0  0
   -2.6958    0.4208    0.0000 O   0  0  0  0  0  0  0  0  0  0  0  0
    0.3042    1.1625    0.0000 O   0  0  0  0  0  0  0  0  0  0  0  0
   -1.1958    0.2625    0.0000 C   0  0  0  0  0  0  0  0  0  0  0  0
   -2.6958   -0.5000    0.0000 O   0  0  0  0  0  0  0  0  0  0  0  0
   -3.0125   -0.0292    0.0000 C   0  0  0  0  0  0  0  0  0  0  0  0
   -1.6708    0.5208    0.0000 C   0  0  0  0  0  0  0  0  0  0  0  0
    2.3292    0.6208    0.0000 O   0  0  0  0  0  0  0  0  0  0  0  0
    3.4292   -0.5792    0.0000 C   0  0  0  0  0  0  0  0  0  0  0  0
   -1.6708   -0.6000    0.0000 C   0  0  0  0  0  0  0  0  0  0  0  0
   -1.1958   -0.3167    0.0000 C   0  0  0  0  0  0  0  0  0  0  0  0
    3.2292    0.3500    0.0000 C   0  0  0  0  0  0  0  0  0  0  0  0
    3.2500   -1.0875    0.0000 C   0  0  0  0  0  0  0  0  0  0  0  0
    3.9792   -0.4667    0.0000 C   0  0  0  0  0  0  0  0  0  0  0  0
    3.7792    0.4625    0.0000 C   0  0  0  0  0  0  0  0  0  0  0  0
    4.1542    0.0458    0.0000 C   0  0  0  0  0  0  0  0  0  0  0  0
  2  1  1  0  0  0  0
  3  1  1  0  0  0  0
  4  3  1  0  0  0  0
  5  2  1  0  0  0  0
  6  4  2  0  0  0  0
  7  1  1  0  0  0  0
  8  9  1  0  0  0  0
  9 10  1  0  0  0  0
 10  7  1  0  0  0  0
 11  2  2  0  0  0  0
 12 20  1  0  0  0  0
 13  8  1  0  0  0  0
 14 23  1  0  0  0  0
 15 12  1  0  0  0  0
 16  3  2  0  0  0  0
 17  6  1  0  0  0  0
 18 14  1  0  0  0  0
 19 15  1  0  0  0  0
 20 17  2  0  0  0  0
 21  9  2  0  0  0  0
 22 13  2  0  0  0  0
 23 24  2  0  0  0  0
 24 17  1  0  0  0  0
 25 13  1  0  0  0  0
 26 22  1  0  0  0  0
 27 22  1  0  0  0  0
 28 25  2  0  0  0  0
 29 28  1  0  0  0  0
  4  5  1  0  0  0  0
 12 14  2  0  0  0  0
 27 29  2  0  0  0  0
 18 19  1  0  0  0  0
M  END
>  <ID> (6141449)
6141449

>  <Supplier> (6141449)
ChemBridge

>  <clogP> (6141449)
2.550000000000000e+000

>  <RB> (6141449)
5

>  <tPSA> (6141449)
6.787000000000001e+001

>  <Hacc> (6141449)
4

>  <Hdon> (6141449)
1

>  <LogSw> (6141449)
-4.487000000000000e+000

>  <Group> (6141449)
1

>  <Core> (6141449)
001

$$$$
7279848
  -ISIS-  03310818262D

 26 27  0  0  0  0  0  0  0  0999 V2000
    1.4292   -1.7042    0.0000 C   0  0  0  0  0  0  0  0  0  0  0  0
   -0.8208    2.2500    0.0000 C   0  0  0  0  0  0  0  0  0  0  0  0
   -0.7625   -1.7375    0.0000 C   0  0  0  0  0  0  0  0  0  0  0  0
    2.6500    0.3000    0.0000 C   0  0  0  0  0  0  0  0  0  0  0  0
  -16.0000    8.9667    0.0000 N   0  0  0  0  0  0  0  0  0  0  0  0
   -2.0458    4.3542    0.0000 C   0  0  0  0  0  0  0  0  0  0  0  0
  -12.0667    8.0917    0.0000 N   0  0  3  0  0  0  0  0  0  0  0  0
   -1.9833    0.3333    0.0000 C   0  0  0  0  0  0  0  0  0  0  0  0
    1.5500    2.2958    0.0000 C   0  0  0  0  0  0  0  0  0  0  0  0
  -13.7500    9.9667    0.0000 C   0  0  0  0  0  0  0  0  0  0  0  0
  -15.6792    6.4792    0.0000 C   0  0  0  0  0  0  0  0  0  0  0  0
  -13.3167    5.9792    0.0000 C   0  0  0  0  0  0  0  0  0  0  0  0
   -0.8208    6.4667    0.0000 O   0  0  0  0  0  0  0  0  0  0  0  0
   -4.4833    4.3542    0.0000 N   0  0  0  0  0  0  0  0  0  0  0  0
    2.4375   -3.7792    0.0000 O   0  0  0  0  0  0  0  0  0  0  0  0
   -1.7458   -3.8375    0.0000 O   0  0  0  0  0  0  0  0  0  0  0  0
    4.9667    0.3333    0.0000 O   0  0  0  0  0  0  0  0  0  0  0  0
   -9.6292    8.2792    0.0000 C   0  0  0  0  0  0  0  0  0  0  0  0
   -8.2667    6.2292    0.0000 C   0  0  0  0  0  0  0  0  0  0  0  0
   -5.7833    6.4167    0.0000 C   0  0  0  0  0  0  0  0  0  0  0  0
    1.1292   -5.7375    0.0000 C   0  0  0  0  0  0  0  0  0  0  0  0
   -0.3958   -5.7667    0.0000 C   0  0  0  0  0  0  0  0  0  0  0  0
    6.1542   -1.6667    0.0000 C   0  0  0  0  0  0  0  0  0  0  0  0
   -1.3708   -7.9000    0.0000 C   0  0  0  0  0  0  0  0  0  0  0  0
    8.4500   -1.6375    0.0000 C   0  0  0  0  0  0  0  0  0  0  0  0
    2.1292   -7.8042    0.0000 C   0  0  0  0  0  0  0  0  0  0  0  0
  2  9  1  0  0  0  0
  3  1  2  0  0  0  0
  4  1  1  0  0  0  0
  5 10  2  0  0  0  0
  6  2  1  0  0  0  0
  7 18  1  0  0  0  0
  8  3  1  0  0  0  0
  9  4  2  0  0  0  0
 10  7  1  0  0  0  0
 11 12  2  0  0  0  0
 12  7  1  0  0  0  0
 13  6  2  0  0  0  0
 14  6  1  0  0  0  0
 15  1  1  0  0  0  0
 16  3  1  0  0  0  0
 17  4  1  0  0  0  0
 18 19  1  0  0  0  0
 19 20  1  0  0  0  0
 20 14  1  0  0  0  0
 21 15  1  0  0  0  0
 22 16  1  0  0  0  0
 23 17  1  0  0  0  0
 24 22  1  0  0  0  0
 25 23  1  0  0  0  0
 26 21  1  0  0  0  0
  2  8  2  0  0  0  0
 11  5  1  0  0  0  0
M  END
>  <ID> (7279848)
7279848

>  <Supplier> (7279848)
ChemBridge

>  <clogP> (7279848)
2.190000000000000e+000

>  <RB> (7279848)
5

>  <tPSA> (7279848)
7.461000000000000e+001

>  <Hacc> (7279848)
6

>  <Hdon> (7279848)
1

>  <LogSw> (7279848)
-3.706000000000000e+000

>  <Group> (7279848)
3

$$$$
7957876
  -ISIS-  03310818272D

 20 22  0  0  0  0  0  0  0  0999 V2000
    5.0000    1.7750    0.0000 C   0  0  0  0  0  0  0  0  0  0  0  0
    1.8625    1.1500    0.0000 S   0  0  3  0  0  0  0  0  0  0  0  0
    5.0792    2.5208    0.0000 S   0  0  0  0  0  0  0  0  0  0  0  0
    5.6792    1.4708    0.0000 C   0  0  0  0  0  0  0  0  0  0  0  0
    4.3500    1.4000    0.0000 C   0  0  0  0  0  0  0  0  0  0  0  0
    6.1875    2.0333    0.0000 C   0  0  0  0  0  0  0  0  0  0  0  0
    5.8125    2.6833    0.0000 C   0  0  0  0  0  0  0  0  0  0  0  0
    2.3667    1.7083    0.0000 C   0  0  0  0  0  0  0  0  0  0  0  0
    2.2375    0.5000    0.0000 C   0  0  0  0  0  0  0  0  0  0  0  0
    3.7000    1.7750    0.0000 N   0  0  0  0  0  0  0  0  0  0  0  0
    2.9667    0.6583    0.0000 C   0  0  0  0  0  0  0  0  0  0  0  0
    3.0500    1.4000    0.0000 C   0  0  3  0  0  0  0  0  0  0  0  0
    1.3625    1.7083    0.0000 O   0  0  0  0  0  0  0  0  0  0  0  0
    1.2542    0.7083    0.0000 O   0  0  0  0  0  0  0  0  0  0  0  0
    4.3500    0.6500    0.0000 O   0  0  0  0  0  0  0  0  0  0  0  0
    5.8417    0.7375    0.0000 Cl  0  0  0  0  0  0  0  0  0  0  0  0
    6.9375    2.0333    0.0000 C   0  0  0  0  0  0  0  0  0  0  0  0
    6.1875    3.3333    0.0000 C   0  0  0  0  0  0  0  0  0  0  0  0
    7.3125    2.6833    0.0000 C   0  0  0  0  0  0  0  0  0  0  0  0
    6.9375    3.3333    0.0000 C   0  0  0  0  0  0  0  0  0  0  0  0
  2  8  1  0  0  0  0
  3  1  1  0  0  0  0
  4  1  2  0  0  0  0
  5  1  1  0  0  0  0
  6  4  1  0  0  0  0
  7  3  1  0  0  0  0
  8 12  1  0  0  0  0
  9 11  2  0  0  0  0
 10  5  1  0  0  0  0
 11 12  1  0  0  0  0
 12 10  1  0  0  0  0
 13  2  2  0  0  0  0
 14  2  2  0  0  0  0
 15  5  2  0  0  0  0
 16  4  1  0  0  0  0
 17  6  1  0  0  0  0
 18  7  1  0  0  0  0
 19 17  2  0  0  0  0
 20 18  2  0  0  0  0
  6  7  2  0  0  0  0
 19 20  1  0  0  0  0
  9  2  1  0  0  0  0
M  END
>  <ID> (7957876)
7957876

>  <Supplier> (7957876)
ChemBridge

>  <clogP> (7957876)
9.320000000000002e-001

>  <RB> (7957876)
2

>  <tPSA> (7957876)
6.323999999999997e+001

>  <Hacc> (7957876)
3

>  <Hdon> (7957876)
1

>  <LogSw> (7957876)
-2.386000000000000e+000

>  <Group> (7957876)
2

>  <Core> (7957876)
351

$$$$
7957877
  -ISIS-  03310818272D

 32 34  0  0  0  0  0  0  0  0999 V2000
    2.0542    0.8875    0.0000 S   0  0  3  0  0  0  0  0  0  0  0  0
    1.6792    1.5375    0.0000 N   0  0  3  0  0  0  0  0  0  0  0  0
    1.6792    4.1292    0.0000 C   0  0  0  0  0  0  0  0  0  0  0  0
    2.0542    2.1875    0.0000 C   0  0  0  0  0  0  0  0  0  0  0  0
    1.6792    2.8375    0.0000 C   0  0  0  0  0  0  0  0  0  0  0  0
    2.0542    3.4875    0.0000 N   0  0  0  0  0  0  0  0  0  0  0  0
    2.7750    1.0833    0.0000 C   0  0  0  0  0  0  0  0  0  0  0  0
    1.3667    0.5708    0.0000 O   0  0  0  0  0  0  0  0  0  0  0  0
    2.3042    0.1833    0.0000 O   0  0  0  0  0  0  0  0  0  0  0  0
    0.9292    1.5375    0.0000 C   0  0  0  0  0  0  0  0  0  0  0  0
    2.0542    4.7792    0.0000 C   0  0  0  0  0  0  0  0  0  0  0  0
    0.9292    4.1292    0.0000 C   0  0  0  0  0  0  0  0  0  0  0  0
    0.9292    2.8375    0.0000 O   0  0  0  0  0  0  0  0  0  0  0  0
    3.3042    0.5583    0.0000 C   0  0  0  0  0  0  0  0  0  0  0  0
    2.9667    1.8083    0.0000 C   0  0  0  0  0  0  0  0  0  0  0  0
    0.5542    2.1875    0.0000 C   0  0  0  0  0  0  0  0  0  0  0  0
    0.5542    0.8875    0.0000 C   0  0  0  0  0  0  0  0  0  0  0  0
   -0.5708    1.5375    0.0000 C   0  0  0  0  0  0  0  0  0  0  0  0
    2.8042    4.7792    0.0000 F   0  0  0  0  0  0  0  0  0  0  0  0
    0.5542    3.4875    0.0000 F   0  0  0  0  0  0  0  0  0  0  0  0
    4.2250    1.4708    0.0000 C   0  0  0  0  0  0  0  0  0  0  0  0
   -0.1958    0.8875    0.0000 C   0  0  0  0  0  0  0  0  0  0  0  0
   -0.1958    2.1875    0.0000 C   0  0  0  0  0  0  0  0  0  0  0  0
    3.6917    2.0000    0.0000 C   0  0  0  0  0  0  0  0  0  0  0  0
    4.0292    0.7458    0.0000 C   0  0  0  0  0  0  0  0  0  0  0  0
   -1.3208    1.5375    0.0000 F   0  0  0  0  0  0  0  0  0  0  0  0
    4.9500    1.6708    0.0000 O   0  0  0  0  0  0  0  0  0  0  0  0
    0.9292    5.4292    0.0000 C   0  0  0  0  0  0  0  0  0  0  0  0
    1.6792    5.4292    0.0000 C   0  0  0  0  0  0  0  0  0  0  0  0
    0.5542    4.7792    0.0000 C   0  0  0  0  0  0  0  0  0  0  0  0
    5.4792    1.1333    0.0000 C   0  0  0  0  0  0  0  0  0  0  0  0
    6.2042    1.3333    0.0000 C   0  0  0  0  0  0  0  0  0  0  0  0
  2  1  1  0  0  0  0
  3  6  1  0  0  0  0
  4  2  1  0  0  0  0
  5  4  1  0  0  0  0
  6  5  1  0  0  0  0
  7  1  1  0  0  0  0
  8  1  2  0  0  0  0
  9  1  2  0  0  0  0
 10  2  1  0  0  0  0
 11  3  1  0  0  0  0
 12  3  2  0  0  0  0
 13  5  2  0  0  0  0
 14  7  2  0  0  0  0
 15  7  1  0  0  0  0
 16 10  2  0  0  0  0
 17 10  1  0  0  0  0
 18 22  1  0  0  0  0
 19 11  1  0  0  0  0
 20 12  1  0  0  0  0
 21 24  1  0  0  0  0
 22 17  2  0  0  0  0
 23 16  1  0  0  0  0
 24 15  2  0  0  0  0
 25 14  1  0  0  0  0
 26 18  1  0  0  0  0
 27 21  1  0  0  0  0
 28 30  2  0  0  0  0
 29 11  2  0  0  0  0
 30 12  1  0  0  0  0
 31 27  1  0  0  0  0
 32 31  1  0  0  0  0
 25 21  2  0  0  0  0
 18 23  2  0  0  0  0
 29 28  1  0  0  0  0
M  END
>  <ID> (7957877)
7957877

>  <Supplier> (7957877)
ChemBridge

>  <clogP> (7957877)
4.196999999999997e+000

>  <RB> (7957877)
5

>  <tPSA> (7957877)
7.570999999999999e+001

>  <Hacc> (7957877)
4

>  <Hdon> (7957877)
1

>  <LogSw> (7957877)
-6.170000000000000e+000

>  <Group> (7957877)
1

>  <Core> (7957877)
084

$$$$
7957874
  -ISIS-  03310818272D

 21 23  0  0  0  0  0  0  0  0999 V2000
    4.9167    3.8208    0.0000 N   0  0  0  0  0  0  0  0  0  0  0  0
    4.4750    3.2208    0.0000 C   0  0  0  0  0  0  0  0  0  0  0  0
    5.6292    3.5958    0.0000 C   0  0  0  0  0  0  0  0  0  0  0  0
    4.9167    2.6083    0.0000 N   0  0  0  0  0  0  0  0  0  0  0  0
    5.6292    2.8458    0.0000 S   0  0  0  0  0  0  0  0  0  0  0  0
    3.7250    3.2208    0.0000 S   0  0  0  0  0  0  0  0  0  0  0  0
    3.3500    2.5708    0.0000 C   0  0  3  0  0  0  0  0  0  0  0  0
    2.6000    2.5708    0.0000 C   0  0  0  0  0  0  0  0  0  0  0  0
    3.7250    1.9208    0.0000 C   0  0  0  0  0  0  0  0  0  0  0  0
    6.2375    4.0250    0.0000 N   0  0  0  0  0  0  0  0  0  0  0  0
    2.2250    3.2208    0.0000 C   0  0  0  0  0  0  0  0  0  0  0  0
    2.2250    1.9208    0.0000 C   0  0  0  0  0  0  0  0  0  0  0  0
    1.1000    2.5708    0.0000 C   0  0  0  0  0  0  0  0  0  0  0  0
    1.4750    3.2208    0.0000 C   0  0  0  0  0  0  0  0  0  0  0  0
    1.4750    1.9208    0.0000 C   0  0  0  0  0  0  0  0  0  0  0  0
    0.3500    2.5708    0.0000 Cl  0  0  0  0  0  0  0  0  0  0  0  0
    3.3500    1.2708    0.0000 C   0  0  0  0  0  0  0  0  0  0  0  0
    4.4750    1.9208    0.0000 C   0  0  0  0  0  0  0  0  0  0  0  0
    3.7250    0.6208    0.0000 C   0  0  0  0  0  0  0  0  0  0  0  0
    4.8500    1.2708    0.0000 C   0  0  0  0  0  0  0  0  0  0  0  0
    4.4750    0.6208    0.0000 C   0  0  0  0  0  0  0  0  0  0  0  0
  2  1  1  0  0  0  0
  3  1  2  0  0  0  0
  4  2  2  0  0  0  0
  5  3  1  0  0  0  0
  6  2  1  0  0  0  0
  7  6  1  0  0  0  0
  8  7  1  0  0  0  0
  9  7  1  0  0  0  0
 10  3  1  0  0  0  0
 11  8  2  0  0  0  0
 12  8  1  0  0  0  0
 13 15  1  0  0  0  0
 14 11  1  0  0  0  0
 15 12  2  0  0  0  0
 16 13  1  0  0  0  0
 17  9  1  0  0  0  0
 18  9  2  0  0  0  0
 19 17  2  0  0  0  0
 20 18  1  0  0  0  0
 21 20  2  0  0  0  0
  5  4  1  0  0  0  0
 14 13  2  0  0  0  0
 19 21  1  0  0  0  0
M  END
>  <ID> (7957874)
7957874

>  <Supplier> (7957874)
ChemBridge

>  <clogP> (7957874)
4.363999999999996e+000

>  <RB> (7957874)
4

>  <tPSA> (7957874)
5.180000000000000e+001

>  <Hacc> (7957874)
2

>  <Hdon> (7957874)
1

>  <LogSw> (7957874)
-5.361000000000000e+000

>  <Group> (7957874)
2

$$$$
7957875
  -ISIS-  03310818272D

 20 21  0  0  0  0  0  0  0  0999 V2000
    6.9125    3.2125    0.0000 C   0  0  0  0  0  0  0  0  0  0  0  0
    6.9917    2.4708    0.0000 N   0  0  0  0  0  0  0  0  0  0  0  0
    7.5917    3.5208    0.0000 N   0  0  0  0  0  0  0  0  0  0  0  0
    6.2625    3.5875    0.0000 C   0  0  0  0  0  0  0  0  0  0  0  0
    8.1000    2.9583    0.0000 N   0  0  0  0  0  0  0  0  0  0  0  0
    7.7250    2.3125    0.0000 C   0  0  0  0  0  0  0  0  0  0  0  0
    6.2625    4.3292    0.0000 O   0  0  0  0  0  0  0  0  0  0  0  0
    3.0167    3.2125    0.0000 C   0  0  0  0  0  0  0  0  0  0  0  0
    5.6125    3.2125    0.0000 N   0  0  0  0  0  0  0  0  0  0  0  0
    1.7167    3.2125    0.0000 C   0  0  0  0  0  0  0  0  0  0  0  0
    2.3667    2.0875    0.0000 C   0  0  0  0  0  0  0  0  0  0  0  0
    2.3667    3.5875    0.0000 C   0  0  0  0  0  0  0  0  0  0  0  0
    3.0167    2.4625    0.0000 C   0  0  0  0  0  0  0  0  0  0  0  0
    1.7167    2.4625    0.0000 C   0  0  0  0  0  0  0  0  0  0  0  0
    3.6667    3.5875    0.0000 O   0  0  0  0  0  0  0  0  0  0  0  0
    2.3667    1.3375    0.0000 C   0  0  0  0  0  0  0  0  0  0  0  0
    4.9625    3.5875    0.0000 C   0  0  0  0  0  0  0  0  0  0  0  0
    1.0667    3.5875    0.0000 C   0  0  0  0  0  0  0  0  0  0  0  0
    4.3125    3.2125    0.0000 C   0  0  0  0  0  0  0  0  0  0  0  0
    1.7167    0.9625    0.0000 C   0  0  0  0  0  0  0  0  0  0  0  0
  2  1  1  0  0  0  0
  3  1  2  0  0  0  0
  4  1  1  0  0  0  0
  5  3  1  0  0  0  0
  6  2  2  0  0  0  0
  7  4  2  0  0  0  0
  8 15  1  0  0  0  0
  9  4  1  0  0  0  0
 10 12  2  0  0  0  0
 11 13  1  0  0  0  0
 12  8  1  0  0  0  0
 13  8  2  0  0  0  0
 14 11  2  0  0  0  0
 15 19  1  0  0  0  0
 16 11  1  0  0  0  0
 17  9  1  0  0  0  0
 18 10  1  0  0  0  0
 19 17  1  0  0  0  0
 20 16  1  0  0  0  0
  5  6  1  0  0  0  0
 10 14  1  0  0  0  0
M  END
>  <ID> (7957875)
7957875

>  <Supplier> (7957875)
ChemBridge

>  <clogP> (7957875)
3.095000000000000e+000

>  <RB> (7957875)
5

>  <tPSA> (7957875)
7.990000000000001e+001

>  <Hacc> (7957875)
4

>  <Hdon> (7957875)
2

>  <LogSw> (7957875)
-3.844000000000000e+000

>  <Group> (7957875)
3

>  <Core> (7957875)
523

$$$$
7973941
  -ISIS-  03310818282D

 26 28  0  0  0  0  0  0  0  0999 V2000
    4.4542    2.6083    0.0000 S   0  0  3  0  0  0  0  0  0  0  0  0
    1.8542    4.0917    0.0000 S   0  0  3  0  0  0  0  0  0  0  0  0
    3.8042    2.9833    0.0000 N   0  0  3  0  0  0  0  0  0  0  0  0
    2.5042    3.7333    0.0000 N   0  0  3  0  0  0  0  0  0  0  0  0
    4.9792    3.1333    0.0000 N   0  0  3  0  0  0  0  0  0  0  0  0
    1.3250    3.5833    0.0000 C   0  0  0  0  0  0  0  0  0  0  0  0
    3.1542    2.6083    0.0000 C   0  0  0  0  0  0  0  0  0  0  0  0
    3.8042    3.7333    0.0000 C   0  0  0  0  0  0  0  0  0  0  0  0
    3.1542    4.0917    0.0000 C   0  0  0  0  0  0  0  0  0  0  0  0
    2.5042    2.9833    0.0000 C   0  0  0  0  0  0  0  0  0  0  0  0
    4.0167    1.9875    0.0000 O   0  0  0  0  0  0  0  0  0  0  0  0
    5.0292    2.1208    0.0000 O   0  0  0  0  0  0  0  0  0  0  0  0
    2.2792    4.7125    0.0000 O   0  0  0  0  0  0  0  0  0  0  0  0
    1.2792    4.5792    0.0000 O   0  0  0  0  0  0  0  0  0  0  0  0
    0.6000    3.7708    0.0000 C   0  0  0  0  0  0  0  0  0  0  0  0
    1.5167    2.8500    0.0000 C   0  0  0  0  0  0  0  0  0  0  0  0
    0.2625    2.5208    0.0000 C   0  0  0  0  0  0  0  0  0  0  0  0
    0.9875    2.3208    0.0000 C   0  0  0  0  0  0  0  0  0  0  0  0
    0.0667    3.2375    0.0000 C   0  0  0  0  0  0  0  0  0  0  0  0
   -0.2708    1.9833    0.0000 Cl  0  0  0  0  0  0  0  0  0  0  0  0
    5.6917    2.8958    0.0000 C   0  0  0  0  0  0  0  0  0  0  0  0
    4.7375    3.8458    0.0000 C   0  0  0  0  0  0  0  0  0  0  0  0
    6.3250    3.2958    0.0000 C   0  0  0  0  0  0  0  0  0  0  0  0
    5.1292    4.4667    0.0000 C   0  0  0  0  0  0  0  0  0  0  0  0
    6.4042    4.0250    0.0000 C   0  0  0  0  0  0  0  0  0  0  0  0
    5.8792    4.5542    0.0000 C   0  0  0  0  0  0  0  0  0  0  0  0
  2  4  1  0  0  0  0
  3  1  1  0  0  0  0
  4  9  1  0  0  0  0
  5  1  1  0  0  0  0
  6  2  1  0  0  0  0
  7  3  1  0  0  0  0
  8  3  1  0  0  0  0
  9  8  1  0  0  0  0
 10  7  1  0  0  0  0
 11  1  2  0  0  0  0
 12  1  2  0  0  0  0
 13  2  2  0  0  0  0
 14  2  2  0  0  0  0
 15  6  2  0  0  0  0
 16  6  1  0  0  0  0
 17 18  1  0  0  0  0
 18 16  2  0  0  0  0
 19 15  1  0  0  0  0
 20 17  1  0  0  0  0
 21  5  1  0  0  0  0
 22  5  1  0  0  0  0
 23 21  1  0  0  0  0
 24 22  1  0  0  0  0
 25 23  1  0  0  0  0
 26 24  1  0  0  0  0
 10  4  1  0  0  0  0
 25 26  1  0  0  0  0
 17 19  2  0  0  0  0
M  END
>  <ID> (7973941)
7973941

>  <Supplier> (7973941)
ChemBridge

>  <clogP> (7973941)
3.650000000000000e+000

>  <RB> (7973941)
1

>  <tPSA> (7973941)
7.800000000000000e+001

>  <Hacc> (7973941)
7

>  <Hdon> (7973941)
0

>  <LogSw> (7973941)
-5.393000000000000e+000

>  <Group> (7973941)
2

>  <Core> (7973941)
172

$$$$
7957871
  -ISIS-  03310818272D

 31 33  0  0  0  0  0  0  0  0999 V2000
    1.1417    3.0458    0.0000 S   0  0  3  0  0  0  0  0  0  0  0  0
    1.1417    2.2958    0.0000 N   0  0  3  0  0  0  0  0  0  0  0  0
   -2.2875    3.2958    0.0000 C   0  0  0  0  0  0  0  0  0  0  0  0
   -4.6000    1.8958    0.0000 C   0  0  0  0  0  0  0  0  0  0  0  0
   -3.8750    1.6958    0.0000 C   0  0  0  0  0  0  0  0  0  0  0  0
   -4.7958    2.6208    0.0000 C   0  0  0  0  0  0  0  0  0  0  0  0
   -3.5458    2.9583    0.0000 C   0  0  0  0  0  0  0  0  0  0  0  0
    0.4167    3.2375    0.0000 C   0  0  0  0  0  0  0  0  0  0  0  0
   -3.3458    2.2333    0.0000 C   0  0  0  0  0  0  0  0  0  0  0  0
   -4.2708    3.1458    0.0000 C   0  0  0  0  0  0  0  0  0  0  0  0
   -3.0083    3.4833    0.0000 N   0  0  0  0  0  0  0  0  0  0  0  0
    1.8875    2.9833    0.0000 O   0  0  0  0  0  0  0  0  0  0  0  0
    1.2667    3.7833    0.0000 O   0  0  0  0  0  0  0  0  0  0  0  0
   -1.7583    3.8208    0.0000 N   0  0  0  0  0  0  0  0  0  0  0  0
   -2.0958    2.5625    0.0000 S   0  0  0  0  0  0  0  0  0  0  0  0
    1.1417    0.7958    0.0000 O   0  0  0  0  0  0  0  0  0  0  0  0
    0.2250    3.9625    0.0000 C   0  0  0  0  0  0  0  0  0  0  0  0
   -0.1125    2.7083    0.0000 C   0  0  0  0  0  0  0  0  0  0  0  0
    1.7917    1.9208    0.0000 C   0  0  0  0  0  0  0  0  0  0  0  0
    0.4917    1.9208    0.0000 C   0  0  0  0  0  0  0  0  0  0  0  0
   -1.0333    3.6250    0.0000 C   0  0  0  0  0  0  0  0  0  0  0  0
   -5.1333    1.3625    0.0000 O   0  0  0  0  0  0  0  0  0  0  0  0
   -5.5208    2.8125    0.0000 O   0  0  0  0  0  0  0  0  0  0  0  0
   -3.6833    0.9750    0.0000 O   0  0  0  0  0  0  0  0  0  0  0  0
   -0.5000    4.1500    0.0000 C   0  0  0  0  0  0  0  0  0  0  0  0
   -0.8375    2.9000    0.0000 C   0  0  0  0  0  0  0  0  0  0  0  0
    0.4917    1.1708    0.0000 C   0  0  0  0  0  0  0  0  0  0  0  0
    1.7917    1.1708    0.0000 C   0  0  0  0  0  0  0  0  0  0  0  0
   -5.8583    1.5583    0.0000 C   0  0  0  0  0  0  0  0  0  0  0  0
   -5.7208    3.5333    0.0000 C   0  0  0  0  0  0  0  0  0  0  0  0
   -2.9583    0.7833    0.0000 C   0  0  0  0  0  0  0  0  0  0  0  0
  2  1  1  0  0  0  0
  3 14  1  0  0  0  0
  4  6  2  0  0  0  0
  5  9  2  0  0  0  0
  6 10  1  0  0  0  0
  7 11  1  0  0  0  0
  8  1  1  0  0  0  0
  9  7  1  0  0  0  0
 10  7  2  0  0  0  0
 11  3  1  0  0  0  0
 12  1  2  0  0  0  0
 13  1  2  0  0  0  0
 14 21  1  0  0  0  0
 15  3  2  0  0  0  0
 16 27  1  0  0  0  0
 17  8  1  0  0  0  0
 18  8  2  0  0  0  0
 19  2  1  0  0  0  0
 20  2  1  0  0  0  0
 21 26  2  0  0  0  0
 22  4  1  0  0  0  0
 23  6  1  0  0  0  0
 24  5  1  0  0  0  0
 25 17  2  0  0  0  0
 26 18  1  0  0  0  0
 27 20  1  0  0  0  0
 28 19  1  0  0  0  0
 29 22  1  0  0  0  0
 30 23  1  0  0  0  0
 31 24  1  0  0  0  0
 25 21  1  0  0  0  0
 28 16  1  0  0  0  0
  5  4  1  0  0  0  0
M  END
>  <ID> (7957871)
7957871

>  <Supplier> (7957871)
ChemBridge

>  <clogP> (7957871)
1.076000000000000e+000

>  <RB> (7957871)
3

>  <tPSA> (7957871)
9.836000000000000e+001

>  <Hacc> (7957871)
7

>  <Hdon> (7957871)
2

>  <LogSw> (7957871)
-3.527000000000000e+000

>  <Group> (7957871)
2

>  <Core> (7957871)
234

$$$$
7973949
  -ISIS-  03310818282D

 26 29  0  0  0  0  0  0  0  0999 V2000
    3.9500    2.4458    0.0000 C   0  0  0  0  0  0  0  0  0  0  0  0
    3.5042    3.0500    0.0000 N   0  0  0  0  0  0  0  0  0  0  0  0
    4.7000    2.4458    0.0000 C   0  0  0  0  0  0  0  0  0  0  0  0
    5.8250    1.7958    0.0000 C   0  0  0  0  0  0  0  0  0  0  0  0
    3.5042    1.8375    0.0000 N   0  0  0  0  0  0  0  0  0  0  0  0
    6.2000    1.1458    0.0000 C   0  0  0  0  0  0  0  0  0  0  0  0
    5.0750    1.7958    0.0000 C   0  0  0  0  0  0  0  0  0  0  0  0
    6.9500    1.1458    0.0000 O   0  0  0  0  0  0  0  0  0  0  0  0
    2.7917    2.8208    0.0000 C   0  0  0  0  0  0  0  0  0  0  0  0
    2.7917    2.0708    0.0000 C   0  0  0  0  0  0  0  0  0  0  0  0
    6.2000    2.4458    0.0000 C   0  0  0  0  0  0  0  0  0  0  0  0
    5.0750    3.0958    0.0000 C   0  0  0  0  0  0  0  0  0  0  0  0
    7.3250    1.7958    0.0000 C   0  0  0  0  0  0  0  0  0  0  0  0
    5.4500    3.7458    0.0000 N   0  0  0  0  0  0  0  0  0  0  0  0
    6.9500    2.4458    0.0000 C   0  0  0  0  0  0  0  0  0  0  0  0
    2.1417    3.1958    0.0000 C   0  0  0  0  0  0  0  0  0  0  0  0
    2.1417    1.6958    0.0000 C   0  0  0  0  0  0  0  0  0  0  0  0
    1.4917    2.8208    0.0000 C   0  0  0  0  0  0  0  0  0  0  0  0
    1.4917    2.0708    0.0000 C   0  0  0  0  0  0  0  0  0  0  0  0
    5.8250    0.4958    0.0000 O   0  0  0  0  0  0  0  0  0  0  0  0
    8.0750    1.7958    0.0000 C   0  0  0  0  0  0  0  0  0  0  0  0
    7.3250    3.0958    0.0000 C   0  0  0  0  0  0  0  0  0  0  0  0
    0.8417    1.6958    0.0000 C   0  0  0  0  0  0  0  0  0  0  0  0
    0.8417    3.1958    0.0000 C   0  0  0  0  0  0  0  0  0  0  0  0
    8.0750    3.0958    0.0000 C   0  0  0  0  0  0  0  0  0  0  0  0
    8.4500    2.4458    0.0000 C   0  0  0  0  0  0  0  0  0  0  0  0
  2  1  2  0  0  0  0
  3  1  1  0  0  0  0
  4  7  1  0  0  0  0
  5  1  1  0  0  0  0
  6  4  1  0  0  0  0
  7  3  2  0  0  0  0
  8  6  1  0  0  0  0
  9  2  1  0  0  0  0
 10  5  1  0  0  0  0
 11  4  2  0  0  0  0
 12  3  1  0  0  0  0
 13 15  1  0  0  0  0
 14 12  3  0  0  0  0
 15 11  1  0  0  0  0
 16  9  2  0  0  0  0
 17 10  2  0  0  0  0
 18 16  1  0  0  0  0
 19 17  1  0  0  0  0
 20  6  2  0  0  0  0
 21 13  2  0  0  0  0
 22 15  2  0  0  0  0
 23 19  1  0  0  0  0
 24 18  1  0  0  0  0
 25 22  1  0  0  0  0
 26 25  2  0  0  0  0
  9 10  1  0  0  0  0
 18 19  2  0  0  0  0
  8 13  1  0  0  0  0
 26 21  1  0  0  0  0
M  END
>  <ID> (7973949)
7973949

>  <Supplier> (7973949)
ChemBridge

>  <clogP> (7973949)
3.098000000000000e+000

>  <RB> (7973949)
2

>  <tPSA> (7973949)
8.268000000000001e+001

>  <Hacc> (7973949)
4

>  <Hdon> (7973949)
1

>  <LogSw> (7973949)
-4.600000000000000e+000

>  <Group> (7973949)
1

>  <Core> (7973949)
112

$$$$
7957878
  -ISIS-  03310818272D

 20 21  0  0  0  0  0  0  0  0999 V2000
    6.3375    1.1833    0.0000 C   0  0  0  0  0  0  0  0  0  0  0  0
    5.5875    1.1833    0.0000 C   0  0  0  0  0  0  0  0  0  0  0  0
    6.7125    0.5333    0.0000 C   0  0  0  0  0  0  0  0  0  0  0  0
    5.2125    0.5333    0.0000 N   0  0  0  0  0  0  0  0  0  0  0  0
    4.4750    0.6583    0.0000 C   0  0  0  0  0  0  0  0  0  0  0  0
    7.4625    0.5333    0.0000 O   0  0  0  0  0  0  0  0  0  0  0  0
    4.2167    1.3625    0.0000 O   0  0  0  0  0  0  0  0  0  0  0  0
    3.9917    0.0833    0.0000 C   0  0  0  0  0  0  0  0  0  0  0  0
    6.4500    0.0750    0.0000 O   0  0  0  0  0  0  0  0  0  0  0  0
    3.2875    0.3458    0.0000 C   0  0  0  0  0  0  0  0  0  0  0  0
    1.8792    0.8583    0.0000 C   0  0  0  0  0  0  0  0  0  0  0  0
    1.1750    1.1125    0.0000 Br  0  0  0  0  0  0  0  0  0  0  0  0
    6.7125    1.8333    0.0000 C   0  0  0  0  0  0  0  0  0  0  0  0
    2.0042    0.1208    0.0000 C   0  0  0  0  0  0  0  0  0  0  0  0
    2.4542    1.3375    0.0000 C   0  0  0  0  0  0  0  0  0  0  0  0
    2.7125   -0.1417    0.0000 C   0  0  0  0  0  0  0  0  0  0  0  0
    3.1542    1.0833    0.0000 C   0  0  0  0  0  0  0  0  0  0  0  0
    5.2125    1.8333    0.0000 C   0  0  0  0  0  0  0  0  0  0  0  0
    6.3375    2.4833    0.0000 C   0  0  0  0  0  0  0  0  0  0  0  0
    5.5875    2.4833    0.0000 C   0  0  0  0  0  0  0  0  0  0  0  0
  2  1  1  0  0  0  0
  3  1  1  0  0  0  0
  4  2  1  0  0  0  0
  5  4  1  0  0  0  0
  6  3  2  0  0  0  0
  7  5  2  0  0  0  0
  8  5  1  0  0  0  0
  9  3  1  0  0  0  0
 10  8  1  0  0  0  0
 11 15  1  0  0  0  0
 12 11  1  0  0  0  0
 13  1  2  0  0  0  0
 14 16  1  0  0  0  0
 15 17  2  0  0  0  0
 16 10  2  0  0  0  0
 17 10  1  0  0  0  0
 18  2  2  0  0  0  0
 19 13  1  0  0  0  0
 20 19  2  0  0  0  0
 20 18  1  0  0  0  0
 11 14  2  0  0  0  0
M  END
>  <ID> (7957878)
7957878

>  <Supplier> (7957878)
ChemBridge

>  <clogP> (7957878)
4.229000000000000e+000

>  <RB> (7957878)
4

>  <tPSA> (7957878)
6.640000000000001e+001

>  <Hacc> (7957878)
3

>  <Hdon> (7957878)
2

>  <LogSw> (7957878)
-5.248000000000000e+000

>  <Group> (7957878)
1

>  <Core> (7957878)
144

$$$$
7941445
  -ISIS-  03310818272D

 32 34  0  0  0  0  0  0  0  0999 V2000
    3.0042    1.0958    0.0000 S   0  0  3  0  0  0  0  0  0  0  0  0
    9.8667    1.5875    0.0000 S   0  0  3  0  0  0  0  0  0  0  0  0
    2.6292    1.7458    0.0000 N   0  0  0  0  0  0  0  0  0  0  0  0
    6.4375    1.3458    0.0000 C   0  0  0  0  0  0  0  0  0  0  0  0
    1.8792    1.7458    0.0000 C   0  0  0  0  0  0  0  0  0  0  0  0
    3.7292    1.2875    0.0000 C   0  0  0  0  0  0  0  0  0  0  0  0
    5.9042    1.8708    0.0000 N   0  0  0  0  0  0  0  0  0  0  0  0
    9.3292    2.1208    0.0000 N   0  0  0  0  0  0  0  0  0  0  0  0
    2.3292    0.7750    0.0000 O   0  0  0  0  0  0  0  0  0  0  0  0
    3.2667    0.3875    0.0000 O   0  0  0  0  0  0  0  0  0  0  0  0
   10.5167    1.9625    0.0000 O   0  0  0  0  0  0  0  0  0  0  0  0
    9.2917    1.1083    0.0000 O   0  0  0  0  0  0  0  0  0  0  0  0
    7.1625    1.5333    0.0000 C   0  0  0  0  0  0  0  0  0  0  0  0
    1.5042    2.3958    0.0000 C   0  0  0  0  0  0  0  0  0  0  0  0
    1.5042    1.0958    0.0000 C   0  0  0  0  0  0  0  0  0  0  0  0
    6.2417    0.6208    0.0000 O   0  0  0  0  0  0  0  0  0  0  0  0
    4.2625    0.7583    0.0000 C   0  0  0  0  0  0  0  0  0  0  0  0
    3.9292    2.0208    0.0000 C   0  0  0  0  0  0  0  0  0  0  0  0
    7.6917    1.0083    0.0000 C   0  0  0  0  0  0  0  0  0  0  0  0
    7.3542    2.2583    0.0000 C   0  0  0  0  0  0  0  0  0  0  0  0
    5.1792    1.6750    0.0000 C   0  0  0  0  0  0  0  0  0  0  0  0
    0.7542    2.3958    0.0000 C   0  0  0  0  0  0  0  0  0  0  0  0
    8.6042    1.9208    0.0000 C   0  0  0  0  0  0  0  0  0  0  0  0
   10.2917    0.9708    0.0000 C   0  0  0  0  0  0  0  0  0  0  0  0
    0.7542    1.0958    0.0000 C   0  0  0  0  0  0  0  0  0  0  0  0
    4.6500    2.2083    0.0000 C   0  0  0  0  0  0  0  0  0  0  0  0
    4.9875    0.9500    0.0000 C   0  0  0  0  0  0  0  0  0  0  0  0
    8.0792    2.4583    0.0000 C   0  0  0  0  0  0  0  0  0  0  0  0
    8.4167    1.1958    0.0000 C   0  0  0  0  0  0  0  0  0  0  0  0
    0.3792    1.7458    0.0000 C   0  0  0  0  0  0  0  0  0  0  0  0
    1.8792    3.0458    0.0000 C   0  0  0  0  0  0  0  0  0  0  0  0
    0.3792    0.4458    0.0000 C   0  0  0  0  0  0  0  0  0  0  0  0
  2  8  1  0  0  0  0
  3  1  1  0  0  0  0
  4  7  1  0  0  0  0
  5  3  1  0  0  0  0
  6  1  1  0  0  0  0
  7 21  1  0  0  0  0
  8 23  1  0  0  0  0
  9  1  2  0  0  0  0
 10  1  2  0  0  0  0
 11  2  2  0  0  0  0
 12  2  2  0  0  0  0
 13  4  1  0  0  0  0
 14  5  1  0  0  0  0
 15  5  2  0  0  0  0
 16  4  2  0  0  0  0
 17  6  2  0  0  0  0
 18  6  1  0  0  0  0
 19 13  1  0  0  0  0
 20 13  2  0  0  0  0
 21 26  1  0  0  0  0
 22 14  2  0  0  0  0
 23 28  2  0  0  0  0
 24  2  1  0  0  0  0
 25 15  1  0  0  0  0
 26 18  2  0  0  0  0
 27 17  1  0  0  0  0
 28 20  1  0  0  0  0
 29 19  2  0  0  0  0
 30 25  2  0  0  0  0
 31 14  1  0  0  0  0
 32 25  1  0  0  0  0
 27 21  2  0  0  0  0
 30 22  1  0  0  0  0
 29 23  1  0  0  0  0
M  END
>  <ID> (7941445)
7941445

>  <Supplier> (7941445)
ChemBridge

>  <clogP> (7941445)
2.881000000000000e+000

>  <RB> (7941445)
5

>  <tPSA> (7941445)
1.214400000000000e+002

>  <Hacc> (7941445)
5

>  <Hdon> (7941445)
3

>  <LogSw> (7941445)
-5.111999999999998e+000

>  <Group> (7941445)
1

>  <Core> (7941445)
152

$$$$
5846994
  -ISIS-  03310818222D

 27 29  0  0  0  0  0  0  0  0999 V2000
   10.7042   -2.3292    0.0000 C   0  0  0  0  0  0  0  0  0  0  0  0
    5.4167   -5.3500    0.0000 N   0  0  3  0  0  0  0  0  0  0  0  0
   10.7042   -5.3500    0.0000 N   0  0  0  0  0  0  0  0  0  0  0  0
   -2.8500   -0.7042    0.0000 C   0  0  0  0  0  0  0  0  0  0  0  0
   -2.8500    2.0708    0.0000 C   0  0  0  0  0  0  0  0  0  0  0  0
    8.1042   -0.8042    0.0000 C   0  0  0  0  0  0  0  0  0  0  0  0
    5.4167   -2.3292    0.0000 C   0  0  0  0  0  0  0  0  0  0  0  0
   -5.3208   -2.0667    0.0000 S   0  0  0  0  0  0  0  0  0  0  0  0
   -7.8792    2.0708    0.0000 C   0  0  0  0  0  0  0  0  0  0  0  0
   13.3667   -0.8042    0.0000 C   0  0  3  0  0  0  0  0  0  0  0  0
   -7.8792   -0.7042    0.0000 C   0  0  0  0  0  0  0  0  0  0  0  0
   -0.2208   -2.1375    0.0000 N   0  0  0  0  0  0  0  0  0  0  0  0
    2.5542   -6.7500    0.0000 C   0  0  0  0  0  0  0  0  0  0  0  0
   -0.2208   -5.1542    0.0000 C   0  0  0  0  0  0  0  0  0  0  0  0
   -0.1333    3.6083    0.0000 C   0  0  0  0  0  0  0  0  0  0  0  0
    2.5875    5.1167    0.0000 N   0  0  0  0  0  0  0  0  0  0  0  0
    8.1042    2.3333    0.0000 Br  0  0  0  0  0  0  0  0  0  0  0  0
   -2.9208   -6.6500    0.0000 O   0  0  0  0  0  0  0  0  0  0  0  0
   16.0000    0.7125    0.0000 F   0  0  0  0  0  0  0  0  0  0  0  0
   11.8042    1.8833    0.0000 F   0  0  0  0  0  0  0  0  0  0  0  0
   14.9167   -3.5000    0.0000 F   0  0  0  0  0  0  0  0  0  0  0  0
    2.6875   -0.8667    0.0000 C   0  0  0  0  0  0  0  0  0  0  0  0
  -10.1167    3.7333    0.0000 C   0  0  0  0  0  0  0  0  0  0  0  0
  -10.4042   -2.2000    0.0000 C   0  0  0  0  0  0  0  0  0  0  0  0
  -12.9375    3.1833    0.0000 C   0  0  0  0  0  0  0  0  0  0  0  0
  -12.8792   -1.4542    0.0000 C   0  0  0  0  0  0  0  0  0  0  0  0
  -14.1042    0.6833    0.0000 C   0  0  0  0  0  0  0  0  0  0  0  0
  2  3  1  0  0  0  0
  3  1  2  0  0  0  0
  4 12  1  0  0  0  0
  5  4  2  0  0  0  0
  6  1  1  0  0  0  0
  7  6  2  0  0  0  0
  8  4  1  0  0  0  0
  9  5  1  0  0  0  0
 10  1  1  0  0  0  0
 11  8  1  0  0  0  0
 12 14  1  0  0  0  0
 13  2  1  0  0  0  0
 14 13  1  0  0  0  0
 15  5  1  0  0  0  0
 16 15  3  0  0  0  0
 17  6  1  0  0  0  0
 18 14  2  0  0  0  0
 19 10  1  0  0  0  0
 20 10  1  0  0  0  0
 21 10  1  0  0  0  0
 22  7  1  0  0  0  0
 23  9  1  0  0  0  0
 24 11  1  0  0  0  0
 25 23  1  0  0  0  0
 26 24  1  0  0  0  0
 27 26  1  0  0  0  0
  2  7  1  0  0  0  0
 11  9  2  0  0  0  0
 25 27  1  0  0  0  0
M  END
>  <ID> (5846994)
5846994

>  <Supplier> (5846994)
ChemBridge

>  <clogP> (5846994)
4.819999999999999e+000

>  <RB> (5846994)
3

>  <tPSA> (5846994)
7.070999999999999e+001

>  <Hacc> (5846994)
4

>  <Hdon> (5846994)
1

>  <LogSw> (5846994)
-6.944000000000000e+000

>  <Group> (5846994)
1

>  <Core> (5846994)
129

$$$$
7941441
  -ISIS-  03310818272D

 18 20  0  0  0  0  0  0  0  0999 V2000
    2.9667    1.4958    0.0000 N   0  0  3  0  0  0  0  0  0  0  0  0
    2.9667    2.2458    0.0000 N   0  0  0  0  0  0  0  0  0  0  0  0
    2.3167    1.1208    0.0000 C   0  0  0  0  0  0  0  0  0  0  0  0
    2.3167    2.6208    0.0000 N   0  0  0  0  0  0  0  0  0  0  0  0
    1.6667    1.4958    0.0000 C   0  0  0  0  0  0  0  0  0  0  0  0
    1.6667    2.2458    0.0000 C   0  0  0  0  0  0  0  0  0  0  0  0
    3.6167    1.1208    0.0000 C   0  0  0  0  0  0  0  0  0  0  0  0
    2.3167    0.3708    0.0000 O   0  0  0  0  0  0  0  0  0  0  0  0
    1.0167    1.1208    0.0000 C   0  0  0  0  0  0  0  0  0  0  0  0
    4.2667    1.4958    0.0000 C   0  0  0  0  0  0  0  0  0  0  0  0
    1.0167    2.6208    0.0000 C   0  0  0  0  0  0  0  0  0  0  0  0
    4.9167    1.1208    0.0000 C   0  0  0  0  0  0  0  0  0  0  0  0
    4.2667    2.2458    0.0000 C   0  0  0  0  0  0  0  0  0  0  0  0
    0.3667    1.4958    0.0000 C   0  0  0  0  0  0  0  0  0  0  0  0
    0.3667    2.2458    0.0000 C   0  0  0  0  0  0  0  0  0  0  0  0
    4.9167    2.6208    0.0000 C   0  0  0  0  0  0  0  0  0  0  0  0
    5.5667    1.4958    0.0000 C   0  0  0  0  0  0  0  0  0  0  0  0
    5.5667    2.2458    0.0000 C   0  0  0  0  0  0  0  0  0  0  0  0
  2  1  1  0  0  0  0
  3  1  1  0  0  0  0
  4  2  2  0  0  0  0
  5  3  1  0  0  0  0
  6  5  1  0  0  0  0
  7  1  1  0  0  0  0
  8  3  2  0  0  0  0
  9  5  2  0  0  0  0
 10  7  1  0  0  0  0
 11  6  2  0  0  0  0
 12 10  2  0  0  0  0
 13 10  1  0  0  0  0
 14  9  1  0  0  0  0
 15 14  2  0  0  0  0
 16 13  2  0  0  0  0
 17 12  1  0  0  0  0
 18 16  1  0  0  0  0
  4  6  1  0  0  0  0
 18 17  2  0  0  0  0
 15 11  1  0  0  0  0
M  END
>  <ID> (7941441)
7941441

>  <Supplier> (7941441)
ChemBridge

>  <clogP> (7941441)
2.602000000000000e+000

>  <RB> (7941441)
2

>  <tPSA> (7941441)
4.778000000000000e+001

>  <Hacc> (7941441)
3

>  <Hdon> (7941441)
0

>  <LogSw> (7941441)
-3.153000000000000e+000

>  <Group> (7941441)
2

>  <Core> (7941441)
541

$$$$
5846990
  -ISIS-  03310818222D

 23 25  0  0  0  0  0  0  0  0999 V2000
    2.1542   -2.0250    0.0000 C   0  0  0  0  0  0  0  0  0  0  0  0
    1.4667   -2.3292    0.0000 N   0  0  0  0  0  0  0  0  0  0  0  0
    2.0667   -1.2792    0.0000 O   0  0  0  0  0  0  0  0  0  0  0  0
    1.3417   -1.1250    0.0000 C   0  0  0  0  0  0  0  0  0  0  0  0
    0.9667   -1.7750    0.0000 C   0  0  0  0  0  0  0  0  0  0  0  0
    4.1042   -2.3917    0.0000 C   0  0  0  0  0  0  0  0  0  0  0  0
    2.8042   -2.3917    0.0000 C   0  0  0  0  0  0  0  0  0  0  0  0
    4.7542   -2.0167    0.0000 N   0  0  0  0  0  0  0  0  0  0  0  0
    3.4542   -2.0167    0.0000 C   0  0  0  0  0  0  0  0  0  0  0  0
    5.4042   -2.3917    0.0000 C   0  0  0  0  0  0  0  0  0  0  0  0
    4.1042   -3.1500    0.0000 C   0  0  0  0  0  0  0  0  0  0  0  0
    0.9625   -0.4750    0.0000 C   0  0  0  0  0  0  0  0  0  0  0  0
    2.8042   -3.1500    0.0000 C   0  0  0  0  0  0  0  0  0  0  0  0
    5.4042   -3.1417    0.0000 O   0  0  0  0  0  0  0  0  0  0  0  0
    0.2167   -1.7792    0.0000 C   0  0  0  0  0  0  0  0  0  0  0  0
    3.4542   -3.5250    0.0000 C   0  0  0  0  0  0  0  0  0  0  0  0
    0.2125   -0.4792    0.0000 C   0  0  0  0  0  0  0  0  0  0  0  0
    4.7542   -3.5250    0.0000 Cl  0  0  0  0  0  0  0  0  0  0  0  0
   -0.1583   -1.1292    0.0000 C   0  0  0  0  0  0  0  0  0  0  0  0
    6.0542   -2.0167    0.0000 C   0  0  0  0  0  0  0  0  0  0  0  0
   -0.1625    0.1708    0.0000 C   0  0  0  0  0  0  0  0  0  0  0  0
    6.0542   -1.2667    0.0000 C   0  0  0  0  0  0  0  0  0  0  0  0
    6.7042   -0.8917    0.0000 C   0  0  0  0  0  0  0  0  0  0  0  0
  2  1  2  0  0  0  0
  3  1  1  0  0  0  0
  4  3  1  0  0  0  0
  5  2  1  0  0  0  0
  6  9  1  0  0  0  0
  7  1  1  0  0  0  0
  8  6  1  0  0  0  0
  9  7  2  0  0  0  0
 10  8  1  0  0  0  0
 11 16  1  0  0  0  0
 12  4  1  0  0  0  0
 13  7  1  0  0  0  0
 14 10  2  0  0  0  0
 15  5  1  0  0  0  0
 16 13  2  0  0  0  0
 17 12  2  0  0  0  0
 18 11  1  0  0  0  0
 19 15  2  0  0  0  0
 20 10  1  0  0  0  0
 21 17  1  0  0  0  0
 22 20  1  0  0  0  0
 23 22  1  0  0  0  0
  5  4  2  0  0  0  0
  6 11  2  0  0  0  0
 19 17  1  0  0  0  0
M  END
>  <ID> (5846990)
5846990

>  <Supplier> (5846990)
ChemBridge

>  <clogP> (5846990)
4.260000000000000e+000

>  <RB> (5846990)
2

>  <tPSA> (5846990)
5.513000000000000e+001

>  <Hacc> (5846990)
3

>  <Hdon> (5846990)
1

>  <LogSw> (5846990)
-5.236000000000002e+000

>  <Group> (5846990)
3

>  <Core> (5846990)
068

$$$$
7884102
  -ISIS-  03310818272D

 24 26  0  0  0  0  0  0  0  0999 V2000
    0.7167    2.0833    0.0000 S   0  0  3  0  0  0  0  0  0  0  0  0
    3.9792    2.8000    0.0000 N   0  0  0  0  0  0  0  0  0  0  0  0
    4.7292    2.7208    0.0000 C   0  0  0  0  0  0  0  0  0  0  0  0
    3.8292    3.5333    0.0000 C   0  0  0  0  0  0  0  0  0  0  0  0
    5.1042    2.0708    0.0000 C   0  0  0  0  0  0  0  0  0  0  0  0
    4.4750    3.9083    0.0000 S   0  0  0  0  0  0  0  0  0  0  0  0
    5.0292    3.4083    0.0000 C   0  0  0  0  0  0  0  0  0  0  0  0
    4.7292    1.4208    0.0000 C   0  0  0  0  0  0  0  0  0  0  0  0
    1.3167    2.5208    0.0000 C   0  0  0  0  0  0  0  0  0  0  0  0
    3.1417    3.8375    0.0000 N   0  0  0  0  0  0  0  0  0  0  0  0
    5.1042    0.7750    0.0000 C   0  0  0  0  0  0  0  0  0  0  0  0
    0.1292    2.5458    0.0000 O   0  0  0  0  0  0  0  0  0  0  0  0
    0.1917    1.5375    0.0000 O   0  0  0  0  0  0  0  0  0  0  0  0
    5.8542    2.0708    0.0000 C   0  0  0  0  0  0  0  0  0  0  0  0
    1.2042    1.5083    0.0000 N   0  0  0  0  0  0  0  0  0  0  0  0
    2.0042    2.2125    0.0000 C   0  0  0  0  0  0  0  0  0  0  0  0
    1.2417    3.2708    0.0000 C   0  0  0  0  0  0  0  0  0  0  0  0
    5.8542    0.7750    0.0000 C   0  0  0  0  0  0  0  0  0  0  0  0
    2.5375    3.3958    0.0000 C   0  0  0  0  0  0  0  0  0  0  0  0
    3.9792    1.4208    0.0000 Cl  0  0  0  0  0  0  0  0  0  0  0  0
    6.2292    1.4208    0.0000 C   0  0  0  0  0  0  0  0  0  0  0  0
    1.8500    3.7083    0.0000 C   0  0  0  0  0  0  0  0  0  0  0  0
    2.6125    2.6500    0.0000 C   0  0  0  0  0  0  0  0  0  0  0  0
    6.2292    0.1250    0.0000 Cl  0  0  0  0  0  0  0  0  0  0  0  0
  2  4  2  0  0  0  0
  3  2  1  0  0  0  0
  4 10  1  0  0  0  0
  5  3  1  0  0  0  0
  6  4  1  0  0  0  0
  7  6  1  0  0  0  0
  8  5  1  0  0  0  0
  9  1  1  0  0  0  0
 10 19  1  0  0  0  0
 11  8  2  0  0  0  0
 12  1  2  0  0  0  0
 13  1  2  0  0  0  0
 14  5  2  0  0  0  0
 15  1  1  0  0  0  0
 16  9  2  0  0  0  0
 17  9  1  0  0  0  0
 18 21  2  0  0  0  0
 19 22  1  0  0  0  0
 20  8  1  0  0  0  0
 21 14  1  0  0  0  0
 22 17  2  0  0  0  0
 23 16  1  0  0  0  0
 24 18  1  0  0  0  0
 23 19  2  0  0  0  0
  7  3  2  0  0  0  0
 11 18  1  0  0  0  0
M  END
>  <ID> (7884102)
7884102

>  <Supplier> (7884102)
ChemBridge

>  <clogP> (7884102)
4.538000000000000e+000

>  <RB> (7884102)
4

>  <tPSA> (7884102)
8.508000000000001e+001

>  <Hacc> (7884102)
4

>  <Hdon> (7884102)
2

>  <LogSw> (7884102)
-5.994000000000000e+000

>  <Group> (7884102)
2

>  <Core> (7884102)
225

$$$$
7941449
  -ISIS-  03310818272D

 39 44  0  0  0  0  0  0  0  0999 V2000
    7.9000   -7.7667    0.0000 C   0  0  0  0  0  0  0  0  0  0  0  0
    7.9042   -8.6000    0.0000 C   0  0  0  0  0  0  0  0  0  0  0  0
    9.1792   -8.1667    0.0000 N   0  0  3  0  0  0  0  0  0  0  0  0
    8.6917   -8.8417    0.0000 N   0  0  3  0  0  0  0  0  0  0  0  0
    8.6917   -7.5125    0.0000 C   0  0  0  0  0  0  0  0  0  0  0  0
    5.0667   -8.5375    0.0000 S   0  0  3  0  0  0  0  0  0  0  0  0
    2.1292   -6.1792    0.0000 C   0  0  3  0  0  0  0  0  0  0  0  0
    5.0667   -7.7042    0.0000 N   0  0  3  0  0  0  0  0  0  0  0  0
    7.2250   -7.2875    0.0000 N   0  0  0  0  0  0  0  0  0  0  0  0
    5.7875   -7.2875    0.0000 C   0  0  0  0  0  0  0  0  0  0  0  0
    6.5042   -7.7042    0.0000 C   0  0  0  0  0  0  0  0  0  0  0  0
    7.2417   -9.0875    0.0000 O   0  0  0  0  0  0  0  0  0  0  0  0
    2.9125   -6.4625    0.0000 C   0  0  0  0  0  0  0  0  0  0  0  0
    1.5917   -6.8667    0.0000 C   0  0  0  0  0  0  0  0  0  0  0  0
    1.3875   -6.3667    0.0000 C   0  0  0  0  0  0  0  0  0  0  0  0
    2.1417   -5.3667    0.0000 C   0  0  0  0  0  0  0  0  0  0  0  0
    5.8667   -8.7500    0.0000 O   0  0  0  0  0  0  0  0  0  0  0  0
    5.4792   -9.2542    0.0000 O   0  0  0  0  0  0  0  0  0  0  0  0
    4.3500   -7.2917    0.0000 C   0  0  0  0  0  0  0  0  0  0  0  0
    8.9542   -9.6292    0.0000 C   0  0  0  0  0  0  0  0  0  0  0  0
    1.3917   -5.0542    0.0000 C   0  0  3  0  0  0  0  0  0  0  0  0
    0.8417   -6.5667    0.0000 C   0  0  3  0  0  0  0  0  0  0  0  0
    0.6792   -6.1042    0.0000 C   0  0  3  0  0  0  0  0  0  0  0  0
    6.5042   -8.5292    0.0000 O   0  0  0  0  0  0  0  0  0  0  0  0
    3.6292   -6.0417    0.0000 C   0  0  0  0  0  0  0  0  0  0  0  0
    2.9125   -7.2917    0.0000 C   0  0  0  0  0  0  0  0  0  0  0  0
    3.6292   -7.7042    0.0000 C   0  0  0  0  0  0  0  0  0  0  0  0
    4.3500   -6.4542    0.0000 C   0  0  0  0  0  0  0  0  0  0  0  0
    0.0375   -6.7917    0.0000 C   0  0  0  0  0  0  0  0  0  0  0  0
    0.6667   -5.3125    0.0000 C   0  0  0  0  0  0  0  0  0  0  0  0
    0.8375   -5.7167    0.0000 C   0  0  0  0  0  0  0  0  0  0  0  0
   10.0000   -8.1667    0.0000 C   0  0  0  0  0  0  0  0  0  0  0  0
    4.3542   -8.9500    0.0000 C   0  0  0  0  0  0  0  0  0  0  0  0
    8.9375   -6.7167    0.0000 C   0  0  0  0  0  0  0  0  0  0  0  0
    8.4000  -10.2542    0.0000 C   0  0  0  0  0  0  0  0  0  0  0  0
    9.7667   -9.8042    0.0000 C   0  0  0  0  0  0  0  0  0  0  0  0
   10.0167  -10.5792    0.0000 C   0  0  0  0  0  0  0  0  0  0  0  0
    8.6625  -11.0417    0.0000 C   0  0  0  0  0  0  0  0  0  0  0  0
    9.4750  -11.2042    0.0000 C   0  0  0  0  0  0  0  0  0  0  0  0
  2  1  1  0  0  0  0
  3  5  1  0  0  0  0
  4  2  1  0  0  0  0
  5  1  2  0  0  0  0
  6  8  1  0  0  0  0
  7 13  1  0  0  0  0
  8 10  1  0  0  0  0
  9  1  1  0  0  0  0
 10 11  1  0  0  0  0
 11  9  1  0  0  0  0
 12  2  2  0  0  0  0
 13 25  1  0  0  0  0
 14  7  1  0  0  0  0
 15  7  1  0  0  0  0
 16  7  1  0  0  0  0
 17  6  2  0  0  0  0
 18  6  2  0  0  0  0
 19  8  1  0  0  0  0
 20  4  1  0  0  0  0
 21 16  1  0  0  0  0
 22 14  1  0  0  0  0
 23 15  1  0  0  0  0
 24 11  2  0  0  0  0
 25 28  2  0  0  0  0
 26 27  1  0  0  0  0
 27 19  2  0  0  0  0
 28 19  1  0  0  0  0
 29 23  1  0  0  0  0
 30 21  1  0  0  0  0
 31 21  1  0  0  0  0
 32  3  1  0  0  0  0
 33  6  1  0  0  0  0
 34  5  1  0  0  0  0
 35 20  1  0  0  0  0
 36 20  2  0  0  0  0
 37 36  1  0  0  0  0
 38 35  2  0  0  0  0
 39 37  2  0  0  0  0
  3  4  1  0  0  0  0
 38 39  1  0  0  0  0
 13 26  2  0  0  0  0
 22 31  1  0  0  0  0
 23 30  1  0  0  0  0
 22 29  1  0  0  0  0
M  END
>  <ID> (7941449)
7941449

>  <Supplier> (7941449)
ChemBridge

>  <clogP> (7941449)
3.175000000000000e+000

>  <RB> (7941449)
6

>  <tPSA> (7941449)
9.341000000000000e+001

>  <Hacc> (7941449)
4

>  <Hdon> (7941449)
1

>  <LogSw> (7941449)
-5.910000000000000e+000

>  <Group> (7941449)
1

>  <Core> (7941449)
084

$$$$
5846998
  -ISIS-  03310818222D

 21 22  0  0  0  0  0  0  0  0999 V2000
    1.5167   -3.1042    0.0000 C   0  0  0  0  0  0  0  0  0  0  0  0
    2.2375   -2.7000    0.0000 N   0  0  3  0  0  0  0  0  0  0  0  0
    3.6542   -1.8667    0.0000 N   0  0  3  0  0  0  0  0  0  0  0  0
    4.3792   -1.4542    0.0000 C   0  0  0  0  0  0  0  0  0  0  0  0
    0.9000   -2.7500    0.0000 C   0  0  0  0  0  0  0  0  0  0  0  0
    2.2375   -1.8667    0.0000 C   0  0  0  0  0  0  0  0  0  0  0  0
    2.9500   -3.1042    0.0000 C   0  0  0  0  0  0  0  0  0  0  0  0
    3.6667   -2.7000    0.0000 C   0  0  0  0  0  0  0  0  0  0  0  0
    2.9500   -1.4542    0.0000 C   0  0  0  0  0  0  0  0  0  0  0  0
    1.5167   -4.1542    0.0000 O   0  0  0  0  0  0  0  0  0  0  0  0
    4.3042   -0.9500    0.0000 C   0  0  0  0  0  0  0  0  0  0  0  0
    5.3667   -1.8292    0.0000 O   0  0  0  0  0  0  0  0  0  0  0  0
    0.2167   -3.1500    0.0000 C   0  0  0  0  0  0  0  0  0  0  0  0
    0.9000   -1.9375    0.0000 C   0  0  0  0  0  0  0  0  0  0  0  0
   -0.4708   -1.9375    0.0000 C   0  0  0  0  0  0  0  0  0  0  0  0
   -0.4708   -2.7500    0.0000 C   0  0  0  0  0  0  0  0  0  0  0  0
    0.2167   -1.5500    0.0000 C   0  0  0  0  0  0  0  0  0  0  0  0
   -1.1333   -1.5500    0.0000 F   0  0  0  0  0  0  0  0  0  0  0  0
    4.7000   -0.5875    0.0000 C   0  0  3  0  0  0  0  0  0  0  0  0
    4.5875    0.1833    0.0000 C   0  0  0  0  0  0  0  0  0  0  0  0
    5.7000   -0.9667    0.0000 C   0  0  0  0  0  0  0  0  0  0  0  0
  2  1  1  0  0  0  0
  3  8  1  0  0  0  0
  4  3  1  0  0  0  0
  5  1  1  0  0  0  0
  6  2  1  0  0  0  0
  7  2  1  0  0  0  0
  8  7  1  0  0  0  0
  9  6  1  0  0  0  0
 10  1  2  0  0  0  0
 11  4  1  0  0  0  0
 12  4  2  0  0  0  0
 13  5  1  0  0  0  0
 14  5  2  0  0  0  0
 15 17  2  0  0  0  0
 16 13  2  0  0  0  0
 17 14  1  0  0  0  0
 18 15  1  0  0  0  0
 19 11  1  0  0  0  0
 20 19  1  0  0  0  0
 21 19  1  0  0  0  0
 15 16  1  0  0  0  0
  3  9  1  0  0  0  0
M  END
>  <ID> (5846998)
5846998

>  <Supplier> (5846998)
ChemBridge

>  <clogP> (5846998)
2.020000000000000e+000

>  <RB> (5846998)
2

>  <tPSA> (5846998)
4.061999999999998e+001

>  <Hacc> (5846998)
2

>  <Hdon> (5846998)
0

>  <LogSw> (5846998)
-3.057000000000000e+000

>  <Group> (5846998)
3

>  <Core> (5846998)
168

$$$$
5635081
  -ISIS-  03310818222D

 26 29  0  0  0  0  0  0  0  0999 V2000
    2.6792    0.1333    0.0000 C   0  0  0  0  0  0  0  0  0  0  0  0
    2.6792    0.8708    0.0000 C   0  0  0  0  0  0  0  0  0  0  0  0
    2.0375   -0.2375    0.0000 N   0  0  0  0  0  0  0  0  0  0  0  0
   -1.8500   -0.2375    0.0000 C   0  0  0  0  0  0  0  0  0  0  0  0
   -2.5333    0.1333    0.0000 S   0  0  0  0  0  0  0  0  0  0  0  0
    3.3167   -0.2375    0.0000 N   0  0  0  0  0  0  0  0  0  0  0  0
    2.0375    1.2458    0.0000 N   0  0  0  0  0  0  0  0  0  0  0  0
   -1.8500   -0.9875    0.0000 N   0  0  0  0  0  0  0  0  0  0  0  0
   -3.1833   -0.2667    0.0000 C   0  0  0  0  0  0  0  0  0  0  0  0
    3.9542    0.8708    0.0000 C   0  0  0  0  0  0  0  0  0  0  0  0
   -3.1958   -0.9875    0.0000 N   0  0  0  0  0  0  0  0  0  0  0  0
    1.4000    0.1458    0.0000 C   0  0  0  0  0  0  0  0  0  0  0  0
   -1.2000    0.1625    0.0000 N   0  0  0  0  0  0  0  0  0  0  0  0
    3.9542    0.1333    0.0000 C   0  0  0  0  0  0  0  0  0  0  0  0
    1.4000    0.8708    0.0000 N   0  0  0  0  0  0  0  0  0  0  0  0
   -0.5208   -0.2167    0.0000 C   0  0  0  0  0  0  0  0  0  0  0  0
    0.7542   -0.2292    0.0000 S   0  0  0  0  0  0  0  0  0  0  0  0
   -0.5125   -0.9875    0.0000 O   0  0  0  0  0  0  0  0  0  0  0  0
   -3.8833    0.0958    0.0000 S   0  0  0  0  0  0  0  0  0  0  0  0
    0.1167    0.1500    0.0000 C   0  0  0  0  0  0  0  0  0  0  0  0
    4.5875    1.2458    0.0000 C   0  0  0  0  0  0  0  0  0  0  0  0
    4.5875   -0.2375    0.0000 C   0  0  0  0  0  0  0  0  0  0  0  0
   -4.5625   -0.3042    0.0000 C   0  0  0  0  0  0  0  0  0  0  0  0
    5.2375    0.8625    0.0000 C   0  0  0  0  0  0  0  0  0  0  0  0
   -5.2708    0.0625    0.0000 C   0  0  0  0  0  0  0  0  0  0  0  0
    5.2375    0.1333    0.0000 C   0  0  0  0  0  0  0  0  0  0  0  0
  2  1  2  0  0  0  0
  3  1  1  0  0  0  0
  4 13  1  0  0  0  0
  5  4  1  0  0  0  0
  6  1  1  0  0  0  0
  7  2  1  0  0  0  0
  8  4  2  0  0  0  0
  9  5  1  0  0  0  0
 10  2  1  0  0  0  0
 11  8  1  0  0  0  0
 12  3  2  0  0  0  0
 13 16  1  0  0  0  0
 14  6  1  0  0  0  0
 15 12  1  0  0  0  0
 16 20  1  0  0  0  0
 17 12  1  0  0  0  0
 18 16  2  0  0  0  0
 19  9  1  0  0  0  0
 20 17  1  0  0  0  0
 21 10  1  0  0  0  0
 22 14  1  0  0  0  0
 23 19  1  0  0  0  0
 24 21  2  0  0  0  0
 25 23  1  0  0  0  0
 26 22  2  0  0  0  0
 10 14  2  0  0  0  0
 15  7  2  0  0  0  0
 24 26  1  0  0  0  0
  9 11  2  0  0  0  0
M  END
>  <ID> (5635081)
5635081

>  <Supplier> (5635081)
ChemBridge

>  <clogP> (5635081)
2.020000000000000e+000

>  <RB> (5635081)
5

>  <tPSA> (5635081)
1.093400000000000e+002

>  <Hacc> (5635081)
6

>  <Hdon> (5635081)
2

>  <LogSw> (5635081)
-4.977000000000000e+000

>  <Group> (5635081)
1

>  <Core> (5635081)
034

$$$$
7017374
  -ISIS-  03310818252D

 23 23  0  0  0  0  0  0  0  0999 V2000
   -0.7625    0.1708    0.0000 C   0  0  3  0  0  0  0  0  0  0  0  0
   -1.1833    0.7458    0.0000 C   0  0  0  0  0  0  0  0  0  0  0  0
   -0.1833    0.3458    0.0000 C   0  0  0  0  0  0  0  0  0  0  0  0
   -1.7958    0.5500    0.0000 O   0  0  0  0  0  0  0  0  0  0  0  0
    0.0500   -0.2042    0.0000 O   0  0  0  0  0  0  0  0  0  0  0  0
   -3.4125   -2.3792    0.0000 C   0  0  0  0  0  0  0  0  0  0  0  0
   -1.3708    1.4958    0.0000 O   0  0  0  0  0  0  0  0  0  0  0  0
    0.4167    0.8208    0.0000 O   0  0  0  0  0  0  0  0  0  0  0  0
   -4.5500   -3.0042    0.0000 C   0  0  0  0  0  0  0  0  0  0  0  0
   -2.7125   -2.1292    0.0000 S   0  0  0  0  0  0  0  0  0  0  0  0
   -4.8833   -3.2167    0.0000 Cl  0  0  0  0  0  0  0  0  0  0  0  0
   -3.4125   -3.0042    0.0000 C   0  0  0  0  0  0  0  0  0  0  0  0
   -3.9958   -2.0292    0.0000 C   0  0  0  0  0  0  0  0  0  0  0  0
   -4.5500   -2.3792    0.0000 C   0  0  0  0  0  0  0  0  0  0  0  0
   -3.9958   -3.3542    0.0000 C   0  0  0  0  0  0  0  0  0  0  0  0
   -0.9000   -0.4875    0.0000 C   0  0  0  0  0  0  0  0  0  0  0  0
   -2.7125   -1.4792    0.0000 C   0  0  0  0  0  0  0  0  0  0  0  0
   -0.8208    2.0333    0.0000 C   0  0  0  0  0  0  0  0  0  0  0  0
    0.3542    1.5500    0.0000 C   0  0  0  0  0  0  0  0  0  0  0  0
   -1.7333   -0.7542    0.0000 C   0  0  0  0  0  0  0  0  0  0  0  0
   -1.7333   -1.3042    0.0000 C   0  0  0  0  0  0  0  0  0  0  0  0
   -1.0125    2.7125    0.0000 C   0  0  0  0  0  0  0  0  0  0  0  0
    0.8292    1.8625    0.0000 C   0  0  0  0  0  0  0  0  0  0  0  0
  2  1  1  0  0  0  0
  3  1  1  0  0  0  0
  4  2  2  0  0  0  0
  5  3  2  0  0  0  0
  6 10  1  0  0  0  0
  7  2  1  0  0  0  0
  8  3  1  0  0  0  0
  9 14  1  0  0  0  0
 10 17  1  0  0  0  0
 11  9  1  0  0  0  0
 12  6  2  0  0  0  0
 13  6  1  0  0  0  0
 14 13  2  0  0  0  0
 15 12  1  0  0  0  0
 16  1  1  0  0  0  0
 17 21  1  0  0  0  0
 18  7  1  0  0  0  0
 19  8  1  0  0  0  0
 20 16  1  0  0  0  0
 21 20  1  0  0  0  0
 22 18  1  0  0  0  0
 23 19  1  0  0  0  0
 15  9  2  0  0  0  0
M  END
>  <ID> (7017374)
7017374

>  <Supplier> (7017374)
ChemBridge

>  <clogP> (7017374)
5.490000000000000e+000

>  <RB> (7017374)
8

>  <tPSA> (7017374)
5.259999999999999e+001

>  <Hacc> (7017374)
4

>  <Hdon> (7017374)
0

>  <LogSw> (7017374)
-6.505000000000000e+000

>  <Group> (7017374)
1

$$$$
5635083
  -ISIS-  03310818222D

 19 20  0  0  0  0  0  0  0  0999 V2000
    0.1792    0.3125    0.0000 C   0  0  0  0  0  0  0  0  0  0  0  0
   -0.6208    0.3125    0.0000 N   0  0  0  0  0  0  0  0  0  0  0  0
   -1.4000    0.3125    0.0000 C   0  0  0  0  0  0  0  0  0  0  0  0
    0.9792    0.3125    0.0000 N   0  0  0  0  0  0  0  0  0  0  0  0
    0.1792    1.1125    0.0000 O   0  0  0  0  0  0  0  0  0  0  0  0
   -1.8000   -0.3667    0.0000 C   0  0  0  0  0  0  0  0  0  0  0  0
    1.7542    0.3125    0.0000 C   0  0  0  0  0  0  0  0  0  0  0  0
   -1.4000   -1.0500    0.0000 F   0  0  0  0  0  0  0  0  0  0  0  0
    3.3375    0.3125    0.0000 C   0  0  0  0  0  0  0  0  0  0  0  0
    2.1542    0.9958    0.0000 C   0  0  0  0  0  0  0  0  0  0  0  0
    2.1542   -0.3667    0.0000 C   0  0  0  0  0  0  0  0  0  0  0  0
    2.9375   -0.3667    0.0000 C   0  0  0  0  0  0  0  0  0  0  0  0
    2.9375    0.9958    0.0000 C   0  0  0  0  0  0  0  0  0  0  0  0
    4.1500    0.3125    0.0000 O   0  0  0  0  0  0  0  0  0  0  0  0
   -1.8000    0.9958    0.0000 C   0  0  0  0  0  0  0  0  0  0  0  0
   -2.5833   -0.3667    0.0000 C   0  0  0  0  0  0  0  0  0  0  0  0
    4.5042   -0.3542    0.0000 C   0  0  0  0  0  0  0  0  0  0  0  0
   -2.5833    0.9958    0.0000 C   0  0  0  0  0  0  0  0  0  0  0  0
   -2.9833    0.3125    0.0000 C   0  0  0  0  0  0  0  0  0  0  0  0
  2  1  1  0  0  0  0
  3  2  1  0  0  0  0
  4  1  1  0  0  0  0
  5  1  2  0  0  0  0
  6  3  1  0  0  0  0
  7  4  1  0  0  0  0
  8  6  1  0  0  0  0
  9 12  2  0  0  0  0
 10  7  1  0  0  0  0
 11  7  2  0  0  0  0
 12 11  1  0  0  0  0
 13 10  2  0  0  0  0
 14  9  1  0  0  0  0
 15  3  2  0  0  0  0
 16  6  2  0  0  0  0
 17 14  1  0  0  0  0
 18 15  1  0  0  0  0
 19 18  2  0  0  0  0
 13  9  1  0  0  0  0
 16 19  1  0  0  0  0
M  END
>  <ID> (5635083)
5635083

>  <Supplier> (5635083)
ChemBridge

>  <clogP> (5635083)
2.970000000000000e+000

>  <RB> (5635083)
2

>  <tPSA> (5635083)
5.036000000000001e+001

>  <Hacc> (5635083)
2

>  <Hdon> (5635083)
2

>  <LogSw> (5635083)
-3.635000000000000e+000

>  <Group> (5635083)
3

>  <Core> (5635083)
514

$$$$
7017373
  -ISIS-  03310818252D

 25 27  0  0  0  0  0  0  0  0999 V2000
    4.3167    2.0583    0.0000 C   0  0  0  0  0  0  0  0  0  0  0  0
    3.2250    0.7333    0.0000 N   0  0  3  0  0  0  0  0  0  0  0  0
    3.2917    1.7875    0.0000 C   0  0  0  0  0  0  0  0  0  0  0  0
    4.8875    1.1583    0.0000 C   0  0  0  0  0  0  0  0  0  0  0  0
    4.2125    0.3375    0.0000 C   0  0  0  0  0  0  0  0  0  0  0  0
    2.5042    0.3250    0.0000 C   0  0  0  0  0  0  0  0  0  0  0  0
    4.6167    2.8333    0.0000 C   0  0  0  0  0  0  0  0  0  0  0  0
   -0.0958    0.3458    0.0000 C   0  0  0  0  0  0  0  0  0  0  0  0
    0.5625    0.7208    0.0000 C   0  0  0  0  0  0  0  0  0  0  0  0
    1.2042    0.3375    0.0000 O   0  0  0  0  0  0  0  0  0  0  0  0
    1.8542    0.7083    0.0000 C   0  0  0  0  0  0  0  0  0  0  0  0
    2.5000   -0.5000    0.0000 O   0  0  0  0  0  0  0  0  0  0  0  0
    4.1000    3.4833    0.0000 O   0  0  0  0  0  0  0  0  0  0  0  0
   -0.7375    0.7333    0.0000 C   0  0  0  0  0  0  0  0  0  0  0  0
    0.5667    1.4708    0.0000 C   0  0  0  0  0  0  0  0  0  0  0  0
   -0.7333    1.4833    0.0000 C   0  0  0  0  0  0  0  0  0  0  0  0
    5.4417    2.9583    0.0000 O   0  0  0  0  0  0  0  0  0  0  0  0
   -0.0833    1.8458    0.0000 C   0  0  0  0  0  0  0  0  0  0  0  0
   -1.3833    1.8583    0.0000 Br  0  0  0  0  0  0  0  0  0  0  0  0
    5.9292    0.9750    0.0000 C   0  0  0  0  0  0  0  0  0  0  0  0
    4.5792   -0.6542    0.0000 C   0  0  0  0  0  0  0  0  0  0  0  0
   -0.0958   -0.4042    0.0000 C   0  0  0  0  0  0  0  0  0  0  0  0
    5.7417    3.7333    0.0000 C   0  0  0  0  0  0  0  0  0  0  0  0
    5.6292   -0.8375    0.0000 C   0  0  0  0  0  0  0  0  0  0  0  0
    6.3042   -0.0167    0.0000 C   0  0  0  0  0  0  0  0  0  0  0  0
  2  3  1  0  0  0  0
  3  1  2  0  0  0  0
  4  1  1  0  0  0  0
  5  4  2  0  0  0  0
  6  2  1  0  0  0  0
  7  1  1  0  0  0  0
  8  9  2  0  0  0  0
  9 10  1  0  0  0  0
 10 11  1  0  0  0  0
 11  6  1  0  0  0  0
 12  6  2  0  0  0  0
 13  7  2  0  0  0  0
 14  8  1  0  0  0  0
 15  9  1  0  0  0  0
 16 18  1  0  0  0  0
 17  7  1  0  0  0  0
 18 15  2  0  0  0  0
 19 16  1  0  0  0  0
 20  4  1  0  0  0  0
 21  5  1  0  0  0  0
 22  8  1  0  0  0  0
 23 17  1  0  0  0  0
 24 25  1  0  0  0  0
 25 20  2  0  0  0  0
  5  2  1  0  0  0  0
 21 24  2  0  0  0  0
 16 14  2  0  0  0  0
M  END
>  <ID> (7017373)
7017373

>  <Supplier> (7017373)
ChemBridge

>  <clogP> (7017373)
5.300000000000000e+000

>  <RB> (7017373)
4

>  <tPSA> (7017373)
5.753000000000000e+001

>  <Hacc> (7017373)
5

>  <Hdon> (7017373)
0

>  <LogSw> (7017373)
-6.659000000000000e+000

>  <Group> (7017373)
1

>  <Core> (7017373)
315

$$$$
5635086
  -ISIS-  03310818222D

 26 28  0  0  0  0  0  0  0  0999 V2000
    3.1875   -5.2042    0.0000 N   0  0  3  0  0  0  0  0  0  0  0  0
    4.2667   -4.4292    0.0000 C   0  0  0  0  0  0  0  0  0  0  0  0
    2.9292   -4.4167    0.0000 N   0  0  0  0  0  0  0  0  0  0  0  0
    4.0042   -5.2042    0.0000 C   0  0  0  0  0  0  0  0  0  0  0  0
    3.6000   -3.9375    0.0000 C   0  0  0  0  0  0  0  0  0  0  0  0
    8.8042   -3.7292    0.0000 N   0  3  0  0  0  0  0  0  0  0  0  0
    5.0500   -4.1792    0.0000 C   0  0  0  0  0  0  0  0  0  0  0  0
    8.0167   -3.9792    0.0000 C   0  0  0  0  0  0  0  0  0  0  0  0
    5.6542   -4.7292    0.0000 N   0  0  0  0  0  0  0  0  0  0  0  0
    2.7000   -5.8667    0.0000 C   0  0  0  0  0  0  0  0  0  0  0  0
    7.8500   -4.7875    0.0000 C   0  0  0  0  0  0  0  0  0  0  0  0
    9.4167   -4.2792    0.0000 O   0  5  0  0  0  0  0  0  0  0  0  0
    7.0542   -5.0375    0.0000 C   0  0  0  0  0  0  0  0  0  0  0  0
    4.4875   -5.8792    0.0000 O   0  0  0  0  0  0  0  0  0  0  0  0
    6.4500   -4.4792    0.0000 C   0  0  0  0  0  0  0  0  0  0  0  0
    8.9792   -2.9167    0.0000 O   0  0  0  0  0  0  0  0  0  0  0  0
    7.4042   -3.4292    0.0000 C   0  0  0  0  0  0  0  0  0  0  0  0
    6.6292   -3.6792    0.0000 C   0  0  0  0  0  0  0  0  0  0  0  0
    3.0292   -6.6292    0.0000 C   0  0  0  0  0  0  0  0  0  0  0  0
    1.8792   -5.7792    0.0000 C   0  0  0  0  0  0  0  0  0  0  0  0
    1.7167   -7.2000    0.0000 C   0  0  0  0  0  0  0  0  0  0  0  0
    1.3875   -6.4500    0.0000 C   0  0  0  0  0  0  0  0  0  0  0  0
    2.5375   -7.2875    0.0000 C   0  0  0  0  0  0  0  0  0  0  0  0
    1.1542   -7.9667    0.0000 Cl  0  0  0  0  0  0  0  0  0  0  0  0
    3.6000   -3.1167    0.0000 C   0  0  0  0  0  0  0  0  0  0  0  0
    6.8792   -5.8375    0.0000 C   0  0  0  0  0  0  0  0  0  0  0  0
  2  4  1  0  0  0  0
  3  1  1  0  0  0  0
  4  1  1  0  0  0  0
  5  3  2  0  0  0  0
  6  8  1  0  0  0  0
  7  2  2  0  0  0  0
  8 17  2  0  0  0  0
  9  7  1  0  0  0  0
 10  1  1  0  0  0  0
 11 13  2  0  0  0  0
 12  6  1  0  0  0  0
 13 15  1  0  0  0  0
 14  4  2  0  0  0  0
 15  9  1  0  0  0  0
 16  6  2  0  0  0  0
 17 18  1  0  0  0  0
 18 15  2  0  0  0  0
 19 10  2  0  0  0  0
 20 10  1  0  0  0  0
 21 22  1  0  0  0  0
 22 20  2  0  0  0  0
 23 19  1  0  0  0  0
 24 21  1  0  0  0  0
 25  5  1  0  0  0  0
 26 13  1  0  0  0  0
  2  5  1  0  0  0  0
 21 23  2  0  0  0  0
 11  8  1  0  0  0  0
M  CHG  2   6   1  12  -1
M  END
>  <ID> (5635086)
5635086

>  <Supplier> (5635086)
ChemBridge

>  <clogP> (5635086)
6.180000000000000e+000

>  <RB> (5635086)
3

>  <tPSA> (5635086)
8.784000000000000e+001

>  <Hacc> (5635086)
4

>  <Hdon> (5635086)
1

>  <LogSw> (5635086)
-7.181000000000000e+000

>  <Group> (5635086)
1

>  <Core> (5635086)
047

$$$$
5479392
  -ISIS-  03310818222D

 28 30  0  0  0  0  0  0  0  0999 V2000
    0.6042    1.6625    0.0000 S   0  0  3  0  0  0  0  0  0  0  0  0
    1.6667    1.6625    0.0000 C   0  0  0  0  0  0  0  0  0  0  0  0
    0.6042    2.6958    0.0000 O   0  0  0  0  0  0  0  0  0  0  0  0
    0.6042    0.5958    0.0000 O   0  0  0  0  0  0  0  0  0  0  0  0
   -0.4333    1.6625    0.0000 O   0  0  0  0  0  0  0  0  0  0  0  0
   -2.5333   -0.1792    0.0000 N   0  0  3  0  0  0  0  0  0  0  0  0
    2.1875    0.7333    0.0000 C   0  0  0  0  0  0  0  0  0  0  0  0
    2.1875    2.5833    0.0000 C   0  0  0  0  0  0  0  0  0  0  0  0
   -0.9458    0.7333    0.0000 C   0  0  0  0  0  0  0  0  0  0  0  0
   -1.9958   -1.0542    0.0000 C   0  0  0  0  0  0  0  0  0  0  0  0
   -3.6000   -0.2042    0.0000 C   0  0  0  0  0  0  0  0  0  0  0  0
    3.7375    1.6625    0.0000 C   0  0  0  0  0  0  0  0  0  0  0  0
    3.2292    0.7333    0.0000 C   0  0  0  0  0  0  0  0  0  0  0  0
    3.2542    2.5833    0.0000 C   0  0  0  0  0  0  0  0  0  0  0  0
    4.7875    1.6708    0.0000 Cl  0  0  0  0  0  0  0  0  0  0  0  0
   -4.0958   -1.1375    0.0000 C   0  0  0  0  0  0  0  0  0  0  0  0
   -0.9458   -1.0375    0.0000 C   0  0  0  0  0  0  0  0  0  0  0  0
   -2.0125    0.7333    0.0000 C   0  0  0  0  0  0  0  0  0  0  0  0
   -3.5333   -2.0292    0.0000 C   0  0  0  0  0  0  0  0  0  0  0  0
   -5.1583   -1.1792    0.0000 C   0  0  0  0  0  0  0  0  0  0  0  0
   -0.3958   -1.9375    0.0000 C   0  0  0  0  0  0  0  0  0  0  0  0
   -0.4458   -0.1167    0.0000 C   0  0  0  0  0  0  0  0  0  0  0  0
   -5.6583   -2.1042    0.0000 C   0  0  0  0  0  0  0  0  0  0  0  0
    0.6542   -1.9167    0.0000 C   0  0  0  0  0  0  0  0  0  0  0  0
    0.6042   -0.0917    0.0000 C   0  0  0  0  0  0  0  0  0  0  0  0
   -4.0208   -2.9667    0.0000 C   0  0  0  0  0  0  0  0  0  0  0  0
   -5.0833   -3.0042    0.0000 C   0  0  0  0  0  0  0  0  0  0  0  0
    1.1667   -1.0000    0.0000 C   0  0  0  0  0  0  0  0  0  0  0  0
  2  1  1  0  0  0  0
  3  1  2  0  0  0  0
  4  1  2  0  0  0  0
  5  1  1  0  0  0  0
  6 18  1  0  0  0  0
  7  2  1  0  0  0  0
  8  2  2  0  0  0  0
  9  5  1  0  0  0  0
 10  6  1  0  0  0  0
 11  6  1  0  0  0  0
 12 14  2  0  0  0  0
 13  7  2  0  0  0  0
 14  8  1  0  0  0  0
 15 12  1  0  0  0  0
 16 11  1  0  0  0  0
 17 10  1  0  0  0  0
 18  9  1  0  0  0  0
 19 16  1  0  0  0  0
 20 16  2  0  0  0  0
 21 17  2  0  0  0  0
 22 17  1  0  0  0  0
 23 20  1  0  0  0  0
 24 21  1  0  0  0  0
 25 22  2  0  0  0  0
 26 19  2  0  0  0  0
 27 23  2  0  0  0  0
 28 25  1  0  0  0  0
 12 13  1  0  0  0  0
 26 27  1  0  0  0  0
 24 28  2  0  0  0  0
M  END
>  <ID> (5479392)
5479392

>  <Supplier> (5479392)
ChemBridge

>  <clogP> (5479392)
5.230000000000000e+000

>  <RB> (5479392)
9

>  <tPSA> (5479392)
4.661000000000000e+001

>  <Hacc> (5479392)
4

>  <Hdon> (5479392)
0

>  <LogSw> (5479392)
-5.690000000000000e+000

>  <Group> (5479392)
2

$$$$
5479390
  -ISIS-  03310818222D

 20 22  0  0  0  0  0  0  0  0999 V2000
    0.4042    1.1333    0.0000 C   0  0  0  0  0  0  0  0  0  0  0  0
   -0.1458    2.0833    0.0000 N   0  0  0  0  0  0  0  0  0  0  0  0
   -1.2458    2.0833    0.0000 C   0  0  0  0  0  0  0  0  0  0  0  0
   -1.7833    1.1333    0.0000 C   0  0  0  0  0  0  0  0  0  0  0  0
    1.5042    1.1333    0.0000 C   0  0  0  0  0  0  0  0  0  0  0  0
   -3.4333    0.1833    0.0000 N   0  0  0  0  0  0  0  0  0  0  0  0
   -0.1458    0.1208    0.0000 O   0  0  0  0  0  0  0  0  0  0  0  0
   -2.8708    1.1333    0.0000 C   0  0  0  0  0  0  0  0  0  0  0  0
    2.0667    2.0833    0.0000 C   0  0  0  0  0  0  0  0  0  0  0  0
    2.0542    0.1958    0.0000 C   0  0  0  0  0  0  0  0  0  0  0  0
    3.7000    1.1625    0.0000 C   0  0  0  0  0  0  0  0  0  0  0  0
    3.1542    0.1958    0.0000 C   0  0  0  0  0  0  0  0  0  0  0  0
    3.1542    2.0708    0.0000 C   0  0  0  0  0  0  0  0  0  0  0  0
    4.8167    1.1708    0.0000 F   0  0  0  0  0  0  0  0  0  0  0  0
   -1.7958    3.0208    0.0000 C   0  0  0  0  0  0  0  0  0  0  0  0
   -1.2333    0.1833    0.0000 C   0  0  0  0  0  0  0  0  0  0  0  0
   -2.8958    3.0208    0.0000 C   0  0  0  0  0  0  0  0  0  0  0  0
   -2.8833   -0.7792    0.0000 C   0  0  0  0  0  0  0  0  0  0  0  0
   -3.4208    2.0625    0.0000 C   0  0  0  0  0  0  0  0  0  0  0  0
   -1.7833   -0.7792    0.0000 C   0  0  0  0  0  0  0  0  0  0  0  0
  2  1  1  0  0  0  0
  3  2  1  0  0  0  0
  4  3  1  0  0  0  0
  5  1  1  0  0  0  0
  6  8  1  0  0  0  0
  7  1  2  0  0  0  0
  8  4  2  0  0  0  0
  9  5  1  0  0  0  0
 10  5  2  0  0  0  0
 11 12  2  0  0  0  0
 12 10  1  0  0  0  0
 13  9  2  0  0  0  0
 14 11  1  0  0  0  0
 15  3  2  0  0  0  0
 16  4  1  0  0  0  0
 17 15  1  0  0  0  0
 18 20  1  0  0  0  0
 19 17  2  0  0  0  0
 20 16  2  0  0  0  0
 11 13  1  0  0  0  0
  8 19  1  0  0  0  0
 18  6  2  0  0  0  0
M  END
>  <ID> (5479390)
5479390

>  <Supplier> (5479390)
ChemBridge

>  <clogP> (5479390)
3.360000000000000e+000

>  <RB> (5479390)
2

>  <tPSA> (5479390)
4.199000000000000e+001

>  <Hacc> (5479390)
2

>  <Hdon> (5479390)
1

>  <LogSw> (5479390)
-4.012000000000000e+000

>  <Group> (5479390)
2

$$$$
7017378
  -ISIS-  03310818252D

 26 26  0  0  0  0  0  0  0  0999 V2000
    5.4625    1.5958    0.0000 N   0  3  0  0  0  0  0  0  0  0  0  0
    5.4625    2.3458    0.0000 C   0  0  0  0  0  0  0  0  0  0  0  0
    8.2167   -0.0875    0.0000 C   0  0  0  0  0  0  0  0  0  0  0  0
    7.4667   -0.1250    0.0000 C   0  0  0  0  0  0  0  0  0  0  0  0
    6.1125    2.7208    0.0000 C   0  0  0  0  0  0  0  0  0  0  0  0
    4.8125    1.2208    0.0000 O   0  5  0  0  0  0  0  0  0  0  0  0
    4.8125    2.7208    0.0000 C   0  0  0  0  0  0  0  0  0  0  0  0
   10.0042    2.7208    0.0000 N   0  0  3  0  0  0  0  0  0  0  0  0
    6.1125    1.2208    0.0000 O   0  0  0  0  0  0  0  0  0  0  0  0
    8.6167   -0.7167    0.0000 O   0  0  0  0  0  0  0  0  0  0  0  0
    7.0625    0.5083    0.0000 O   0  0  0  0  0  0  0  0  0  0  0  0
    6.1125    3.4708    0.0000 C   0  0  0  0  0  0  0  0  0  0  0  0
    7.1167   -0.7875    0.0000 O   0  0  0  0  0  0  0  0  0  0  0  0
    8.5625    0.5833    0.0000 O   0  0  0  0  0  0  0  0  0  0  0  0
    4.8125    3.4708    0.0000 C   0  0  0  0  0  0  0  0  0  0  0  0
    5.4625    3.8458    0.0000 C   0  0  0  0  0  0  0  0  0  0  0  0
    6.7625    2.3458    0.0000 O   0  0  0  0  0  0  0  0  0  0  0  0
    9.3625    2.3458    0.0000 C   0  0  0  0  0  0  0  0  0  0  0  0
   10.6917    2.4083    0.0000 C   0  0  0  0  0  0  0  0  0  0  0  0
   10.0792    3.4625    0.0000 C   0  0  0  0  0  0  0  0  0  0  0  0
    4.1625    3.8458    0.0000 C   0  0  0  0  0  0  0  0  0  0  0  0
    7.4125    2.7208    0.0000 C   0  0  0  0  0  0  0  0  0  0  0  0
    8.7125    2.7208    0.0000 C   0  0  0  0  0  0  0  0  0  0  0  0
    8.0625    2.3458    0.0000 C   0  0  0  0  0  0  0  0  0  0  0  0
   10.8167    3.6208    0.0000 C   0  0  0  0  0  0  0  0  0  0  0  0
   11.1917    2.9708    0.0000 C   0  0  0  0  0  0  0  0  0  0  0  0
  2  1  1  0  0  0  0
  4  3  1  0  0  0  0
  5  2  2  0  0  0  0
  6  1  1  0  0  0  0
  7  2  1  0  0  0  0
  8 18  1  0  0  0  0
  9  1  2  0  0  0  0
 10  3  2  0  0  0  0
 11  4  2  0  0  0  0
 12  5  1  0  0  0  0
 13  4  1  0  0  0  0
 14  3  1  0  0  0  0
 15  7  2  0  0  0  0
 16 15  1  0  0  0  0
 17  5  1  0  0  0  0
 18 23  1  0  0  0  0
 19  8  1  0  0  0  0
 20  8  1  0  0  0  0
 21 15  1  0  0  0  0
 22 17  1  0  0  0  0
 23 24  1  0  0  0  0
 24 22  1  0  0  0  0
 25 20  1  0  0  0  0
 26 19  1  0  0  0  0
 12 16  2  0  0  0  0
 26 25  1  0  0  0  0
M  CHG  2   1   1   6  -1
M  END
>  <ID> (7017378)
7017378

>  <Supplier> (7017378)
ChemBridge

>  <clogP> (7017378)
-3.200000000000000e-001

>  <RB> (7017378)
6

>  <tPSA> (7017378)
1.302100000000000e+002

>  <Hacc> (7017378)
8

>  <Hdon> (7017378)
2

>  <LogSw> (7017378)
-3.390000000000000e-001

>  <Group> (7017378)
2

>  <Core> (7017378)
105

$$$$
7817315
  -ISIS-  03310818272D

 22 23  0  0  0  0  0  0  0  0999 V2000
    2.1292   -6.8125    0.0000 C   0  0  0  0  0  0  0  0  0  0  0  0
    4.0917   -3.3917    0.0000 N   0  0  0  0  0  0  0  0  0  0  0  0
    8.1000   -3.3917    0.0000 C   0  0  0  0  0  0  0  0  0  0  0  0
   10.0542    0.0875    0.0000 C   0  0  0  0  0  0  0  0  0  0  0  0
   -1.8250   -6.8125    0.0000 N   0  0  0  0  0  0  0  0  0  0  0  0
  -13.8625    6.8667    0.0000 C   0  0  0  0  0  0  0  0  0  0  0  0
    4.1292  -10.2167    0.0000 O   0  0  0  0  0  0  0  0  0  0  0  0
   13.9667    0.0875    0.0000 C   0  0  0  0  0  0  0  0  0  0  0  0
  -15.8792    3.4958    0.0000 O   0  0  0  0  0  0  0  0  0  0  0  0
   -9.9042    6.8917    0.0000 C   0  0  0  0  0  0  0  0  0  0  0  0
   -3.8208   -3.4375    0.0000 C   0  0  0  0  0  0  0  0  0  0  0  0
   -7.8875    3.4958    0.0000 C   0  0  0  0  0  0  0  0  0  0  0  0
   15.9792    3.5875    0.0000 Cl  0  0  0  0  0  0  0  0  0  0  0  0
  -16.0000   10.2167    0.0000 O   0  0  0  0  0  0  0  0  0  0  0  0
   -1.9708    0.0583    0.0000 C   0  0  0  0  0  0  0  0  0  0  0  0
   -7.8292   -3.4375    0.0000 C   0  0  0  0  0  0  0  0  0  0  0  0
   -3.9083    3.4958    0.0000 C   0  0  0  0  0  0  0  0  0  0  0  0
   -9.8167    0.0583    0.0000 C   0  0  0  0  0  0  0  0  0  0  0  0
   10.0542   -6.7917    0.0000 C   0  0  0  0  0  0  0  0  0  0  0  0
    8.0792    3.5250    0.0000 C   0  0  0  0  0  0  0  0  0  0  0  0
   14.0250   -6.7375    0.0000 C   0  0  0  0  0  0  0  0  0  0  0  0
   16.0000   -3.3292    0.0000 C   0  0  0  0  0  0  0  0  0  0  0  0
  2  1  1  0  0  0  0
  3  2  1  0  0  0  0
  4  3  2  0  0  0  0
  5  1  1  0  0  0  0
  6 10  1  0  0  0  0
  7  1  2  0  0  0  0
  8  4  1  0  0  0  0
  9  6  2  0  0  0  0
 10 12  1  0  0  0  0
 11  5  1  0  0  0  0
 12 18  1  0  0  0  0
 13  8  1  0  0  0  0
 14  6  1  0  0  0  0
 15 11  2  0  0  0  0
 16 11  1  0  0  0  0
 17 15  1  0  0  0  0
 18 16  2  0  0  0  0
 19  3  1  0  0  0  0
 20  4  1  0  0  0  0
 21 19  2  0  0  0  0
 22 21  1  0  0  0  0
 12 17  2  0  0  0  0
 22  8  2  0  0  0  0
M  END
>  <ID> (7817315)
7817315

>  <Supplier> (7817315)
ChemBridge

>  <clogP> (7817315)
3.240000000000000e+000

>  <RB> (7817315)
4

>  <tPSA> (7817315)
7.843000000000001e+001

>  <Hacc> (7817315)
3

>  <Hdon> (7817315)
3

>  <LogSw> (7817315)
-4.292000000000000e+000

>  <Group> (7817315)
3

>  <Core> (7817315)
514

$$$$
6135432
  -ISIS-  03310818232D

 25 28  0  0  0  0  0  0  0  0999 V2000
    0.3167    0.8125    0.0000 N   0  0  3  0  0  0  0  0  0  0  0  0
    0.3167   -0.4292    0.0000 C   0  0  3  0  0  0  0  0  0  0  0  0
   -0.7625    1.4125    0.0000 C   0  0  0  0  0  0  0  0  0  0  0  0
   -0.7625   -1.0292    0.0000 N   0  0  0  0  0  0  0  0  0  0  0  0
   -1.8000    0.8125    0.0000 C   0  0  0  0  0  0  0  0  0  0  0  0
    1.3542   -1.0500    0.0000 C   0  0  0  0  0  0  0  0  0  0  0  0
   -1.8000   -0.4292    0.0000 C   0  0  0  0  0  0  0  0  0  0  0  0
    1.3542    1.4333    0.0000 C   0  0  0  0  0  0  0  0  0  0  0  0
   -0.7625    2.6333    0.0000 O   0  0  0  0  0  0  0  0  0  0  0  0
    1.3542   -2.2667    0.0000 C   0  0  0  0  0  0  0  0  0  0  0  0
    2.4167    0.8333    0.0000 C   0  0  0  0  0  0  0  0  0  0  0  0
    1.3542    2.6500    0.0000 C   0  0  0  0  0  0  0  0  0  0  0  0
    0.2792   -2.9042    0.0000 F   0  0  0  0  0  0  0  0  0  0  0  0
   -2.8625    1.4125    0.0000 C   0  0  0  0  0  0  0  0  0  0  0  0
    2.4167   -0.4500    0.0000 C   0  0  0  0  0  0  0  0  0  0  0  0
    3.4792    1.4333    0.0000 C   0  0  0  0  0  0  0  0  0  0  0  0
    2.4000    3.2708    0.0000 C   0  0  0  0  0  0  0  0  0  0  0  0
    3.4542    2.6708    0.0000 C   0  0  0  0  0  0  0  0  0  0  0  0
   -2.8625   -1.0292    0.0000 C   0  0  0  0  0  0  0  0  0  0  0  0
    2.4000   -2.8875    0.0000 C   0  0  0  0  0  0  0  0  0  0  0  0
    4.5167    3.3125    0.0000 C   0  0  0  0  0  0  0  0  0  0  0  0
   -3.9208    0.8125    0.0000 C   0  0  0  0  0  0  0  0  0  0  0  0
    3.4792   -1.0500    0.0000 C   0  0  0  0  0  0  0  0  0  0  0  0
   -3.9208   -0.4292    0.0000 C   0  0  0  0  0  0  0  0  0  0  0  0
    3.4542   -2.2875    0.0000 C   0  0  0  0  0  0  0  0  0  0  0  0
  2  1  1  0  0  0  0
  3  1  1  0  0  0  0
  4  2  1  0  0  0  0
  5  3  1  0  0  0  0
  6  2  1  0  0  0  0
  7  5  2  0  0  0  0
  8  1  1  0  0  0  0
  9  3  2  0  0  0  0
 10  6  2  0  0  0  0
 11  8  2  0  0  0  0
 12  8  1  0  0  0  0
 13 10  1  0  0  0  0
 14  5  1  0  0  0  0
 15  6  1  0  0  0  0
 16 11  1  0  0  0  0
 17 12  2  0  0  0  0
 18 17  1  0  0  0  0
 19  7  1  0  0  0  0
 20 10  1  0  0  0  0
 21 18  1  0  0  0  0
 22 14  2  0  0  0  0
 23 15  2  0  0  0  0
 24 22  1  0  0  0  0
 25 23  1  0  0  0  0
  4  7  1  0  0  0  0
 16 18  2  0  0  0  0
 24 19  2  0  0  0  0
 20 25  2  0  0  0  0
M  END
>  <ID> (6135432)
6135432

>  <Supplier> (6135432)
ChemBridge

>  <clogP> (6135432)
5.359999999999999e+000

>  <RB> (6135432)
2

>  <tPSA> (6135432)
3.234000000000000e+001

>  <Hacc> (6135432)
1

>  <Hdon> (6135432)
1

>  <LogSw> (6135432)
-6.201000000000001e+000

>  <Group> (6135432)
2

>  <Core> (6135432)
388

$$$$
6316754
  -ISIS-  03310818232D

 28 30  0  0  0  0  0  0  0  0999 V2000
    2.4875   -0.6750    0.0000 N   0  0  3  0  0  0  0  0  0  0  0  0
    3.1917   -0.2542    0.0000 C   0  0  0  0  0  0  0  0  0  0  0  0
    2.4875   -1.5000    0.0000 C   0  0  0  0  0  0  0  0  0  0  0  0
    3.1917   -1.9042    0.0000 C   0  0  0  0  0  0  0  0  0  0  0  0
    3.9042   -0.6750    0.0000 N   0  0  0  0  0  0  0  0  0  0  0  0
    3.9042   -1.5000    0.0000 C   0  0  0  0  0  0  0  0  0  0  0  0
    1.7667   -0.2625    0.0000 C   0  0  0  0  0  0  0  0  0  0  0  0
    1.7667    0.5708    0.0000 C   0  0  0  0  0  0  0  0  0  0  0  0
    3.1917   -2.7292    0.0000 C   0  0  0  0  0  0  0  0  0  0  0  0
    3.1917    0.5708    0.0000 S   0  0  0  0  0  0  0  0  0  0  0  0
    6.0125   -4.4000    0.0000 C   0  0  0  0  0  0  0  0  0  0  0  0
    1.7667   -1.9125    0.0000 O   0  0  0  0  0  0  0  0  0  0  0  0
    4.6250   -1.9125    0.0000 O   0  0  0  0  0  0  0  0  0  0  0  0
    5.3000   -3.9792    0.0000 C   0  0  0  0  0  0  0  0  0  0  0  0
    1.0542    0.9750    0.0000 C   0  0  0  0  0  0  0  0  0  0  0  0
    6.7250   -4.0000    0.0000 O   0  0  0  0  0  0  0  0  0  0  0  0
    3.9000   -3.1500    0.0000 C   0  0  0  0  0  0  0  0  0  0  0  0
    2.4875    0.9833    0.0000 Cl  0  0  0  0  0  0  0  0  0  0  0  0
    5.3042   -3.1542    0.0000 C   0  0  0  0  0  0  0  0  0  0  0  0
    4.5917   -4.3750    0.0000 C   0  0  0  0  0  0  0  0  0  0  0  0
    1.0542   -0.6750    0.0000 C   0  0  0  0  0  0  0  0  0  0  0  0
    1.0542    1.8083    0.0000 Cl  0  0  0  0  0  0  0  0  0  0  0  0
    6.0000   -5.2167    0.0000 O   0  0  0  0  0  0  0  0  0  0  0  0
    4.6042   -2.7375    0.0000 C   0  0  0  0  0  0  0  0  0  0  0  0
    3.8917   -3.9542    0.0000 C   0  0  0  0  0  0  0  0  0  0  0  0
    0.3417   -0.2625    0.0000 C   0  0  0  0  0  0  0  0  0  0  0  0
    0.3417    0.5708    0.0000 C   0  0  0  0  0  0  0  0  0  0  0  0
    5.2792   -5.6042    0.0000 C   0  0  0  0  0  0  0  0  0  0  0  0
  2  1  1  0  0  0  0
  3  1  1  0  0  0  0
  4  3  1  0  0  0  0
  5  2  1  0  0  0  0
  6  4  1  0  0  0  0
  7  1  1  0  0  0  0
  8  7  2  0  0  0  0
  9  4  2  0  0  0  0
 10  2  2  0  0  0  0
 11 14  1  0  0  0  0
 12  3  2  0  0  0  0
 13  6  2  0  0  0  0
 14 20  2  0  0  0  0
 15  8  1  0  0  0  0
 16 11  2  0  0  0  0
 17  9  1  0  0  0  0
 18  8  1  0  0  0  0
 19 24  2  0  0  0  0
 20 25  1  0  0  0  0
 21  7  1  0  0  0  0
 22 15  1  0  0  0  0
 23 11  1  0  0  0  0
 24 17  1  0  0  0  0
 25 17  2  0  0  0  0
 26 21  2  0  0  0  0
 27 26  1  0  0  0  0
 28 23  1  0  0  0  0
  6  5  1  0  0  0  0
 27 15  2  0  0  0  0
 14 19  1  0  0  0  0
M  END
>  <ID> (6316754)
6316754

>  <Supplier> (6316754)
ChemBridge

>  <clogP> (6316754)
5.290000000000000e+000

>  <RB> (6316754)
3

>  <tPSA> (6316754)
7.570999999999999e+001

>  <Hacc> (6316754)
4

>  <Hdon> (6316754)
1

>  <LogSw> (6316754)
-6.891000000000000e+000

>  <Group> (6316754)
1

>  <Core> (6316754)
007

$$$$
6135436
  -ISIS-  03310818232D

 27 30  0  0  0  0  0  0  0  0999 V2000
    0.2667    0.5958    0.0000 C   0  0  0  0  0  0  0  0  0  0  0  0
   -0.4333    0.9125    0.0000 N   0  0  0  0  0  0  0  0  0  0  0  0
    3.7250    1.4625    0.0000 N   0  0  0  0  0  0  0  0  0  0  0  0
    3.6667    0.6958    0.0000 C   0  0  0  0  0  0  0  0  0  0  0  0
    0.1875   -0.1875    0.0000 O   0  0  0  0  0  0  0  0  0  0  0  0
    4.4250    1.8083    0.0000 C   0  0  0  0  0  0  0  0  0  0  0  0
    5.0792    1.3583    0.0000 C   0  0  0  0  0  0  0  0  0  0  0  0
    2.9667    0.3500    0.0000 N   0  0  0  0  0  0  0  0  0  0  0  0
    2.3042    0.7958    0.0000 C   0  0  0  0  0  0  0  0  0  0  0  0
    0.9667    0.9125    0.0000 C   0  0  0  0  0  0  0  0  0  0  0  0
   -0.9500    0.3125    0.0000 C   0  0  0  0  0  0  0  0  0  0  0  0
   -0.5708   -0.3500    0.0000 C   0  0  0  0  0  0  0  0  0  0  0  0
    1.6042    0.4708    0.0000 C   0  0  0  0  0  0  0  0  0  0  0  0
    4.3042    0.2625    0.0000 S   0  0  0  0  0  0  0  0  0  0  0  0
    5.8167    1.6083    0.0000 O   0  0  0  0  0  0  0  0  0  0  0  0
    2.3667    1.5708    0.0000 C   0  0  0  0  0  0  0  0  0  0  0  0
    4.5000    2.5833    0.0000 O   0  0  0  0  0  0  0  0  0  0  0  0
    5.1042    0.5708    0.0000 C   0  0  0  0  0  0  0  0  0  0  0  0
    6.2792    0.9833    0.0000 C   0  0  0  0  0  0  0  0  0  0  0  0
    1.0500    1.6958    0.0000 C   0  0  0  0  0  0  0  0  0  0  0  0
    5.8417    0.3583    0.0000 C   0  0  0  0  0  0  0  0  0  0  0  0
    1.7500    2.0208    0.0000 C   0  0  0  0  0  0  0  0  0  0  0  0
   -1.7333    0.3125    0.0000 C   0  0  0  0  0  0  0  0  0  0  0  0
   -0.9500   -1.0500    0.0000 C   0  0  0  0  0  0  0  0  0  0  0  0
    3.0875    1.8958    0.0000 C   0  0  0  0  0  0  0  0  0  0  0  0
   -1.7125   -1.0667    0.0000 C   0  0  0  0  0  0  0  0  0  0  0  0
   -2.1333   -0.3500    0.0000 C   0  0  0  0  0  0  0  0  0  0  0  0
  2  1  2  0  0  0  0
  3  4  1  0  0  0  0
  4  8  1  0  0  0  0
  5  1  1  0  0  0  0
  6  3  1  0  0  0  0
  7  6  1  0  0  0  0
  8  9  1  0  0  0  0
  9 13  2  0  0  0  0
 10  1  1  0  0  0  0
 11  2  1  0  0  0  0
 12  5  1  0  0  0  0
 13 10  1  0  0  0  0
 14  4  2  0  0  0  0
 15  7  1  0  0  0  0
 16 22  2  0  0  0  0
 17  6  2  0  0  0  0
 18  7  2  0  0  0  0
 19 15  1  0  0  0  0
 20 10  2  0  0  0  0
 21 18  1  0  0  0  0
 22 20  1  0  0  0  0
 23 11  1  0  0  0  0
 24 12  1  0  0  0  0
 25 16  1  0  0  0  0
 26 24  2  0  0  0  0
 27 23  2  0  0  0  0
 11 12  2  0  0  0  0
 16  9  1  0  0  0  0
 27 26  1  0  0  0  0
 21 19  2  0  0  0  0
M  END
>  <ID> (6135436)
6135436

>  <Supplier> (6135436)
ChemBridge

>  <clogP> (6135436)
3.240000000000000e+000

>  <RB> (6135436)
3

>  <tPSA> (6135436)
8.030000000000000e+001

>  <Hacc> (6135436)
4

>  <Hdon> (6135436)
2

>  <LogSw> (6135436)
-4.719000000000000e+000

>  <Group> (6135436)
1

>  <Core> (6135436)
068

$$$$
6135435
  -ISIS-  03310818232D

 31 34  0  0  0  0  0  0  0  0999 V2000
    9.8667   -2.7417    0.0000 C   0  0  0  0  0  0  0  0  0  0  0  0
    9.8667   -1.6917    0.0000 C   0  0  0  0  0  0  0  0  0  0  0  0
    8.8875   -3.2917    0.0000 C   0  0  0  0  0  0  0  0  0  0  0  0
    8.8875   -1.1417    0.0000 O   0  0  0  0  0  0  0  0  0  0  0  0
    7.9500   -2.7500    0.0000 C   0  0  0  0  0  0  0  0  0  0  0  0
    7.9500   -1.6917    0.0000 C   0  0  0  0  0  0  0  0  0  0  0  0
   10.5417   -1.3167    0.0000 C   0  0  3  0  0  0  0  0  0  0  0  0
   10.5792   -3.1542    0.0000 C   0  0  0  0  0  0  0  0  0  0  0  0
    4.0542   -1.6917    0.0000 C   0  0  0  0  0  0  0  0  0  0  0  0
    3.0750   -1.1375    0.0000 C   0  0  0  0  0  0  0  0  0  0  0  0
    6.9750   -1.1417    0.0000 C   0  0  0  0  0  0  0  0  0  0  0  0
    5.0292   -1.1417    0.0000 O   0  0  0  0  0  0  0  0  0  0  0  0
    6.9750   -3.2917    0.0000 C   0  0  0  0  0  0  0  0  0  0  0  0
    8.8875   -4.3792    0.0000 O   0  0  0  0  0  0  0  0  0  0  0  0
    1.9500   -1.2000    0.0000 O   0  0  0  0  0  0  0  0  0  0  0  0
    6.0042   -1.6917    0.0000 C   0  0  0  0  0  0  0  0  0  0  0  0
    3.3667   -0.0792    0.0000 C   0  0  0  0  0  0  0  0  0  0  0  0
    4.0500   -2.7792    0.0000 O   0  0  0  0  0  0  0  0  0  0  0  0
   10.5792   -3.9792    0.0000 C   0  0  0  0  0  0  0  0  0  0  0  0
    1.5417   -0.1750    0.0000 C   0  0  0  0  0  0  0  0  0  0  0  0
    2.4167    0.5208    0.0000 C   0  0  0  0  0  0  0  0  0  0  0  0
   10.6750   -0.5417    0.0000 F   0  0  0  0  0  0  0  0  0  0  0  0
   11.1542   -0.9750    0.0000 F   0  0  0  0  0  0  0  0  0  0  0  0
   11.2917   -1.5917    0.0000 F   0  0  0  0  0  0  0  0  0  0  0  0
    6.0042   -2.7500    0.0000 C   0  0  0  0  0  0  0  0  0  0  0  0
    9.8625   -4.3917    0.0000 O   0  0  0  0  0  0  0  0  0  0  0  0
   11.2917   -2.7417    0.0000 C   0  0  0  0  0  0  0  0  0  0  0  0
   11.2917   -4.3917    0.0000 C   0  0  0  0  0  0  0  0  0  0  0  0
    9.8625   -5.2167    0.0000 C   0  0  0  0  0  0  0  0  0  0  0  0
   12.0042   -3.1542    0.0000 C   0  0  0  0  0  0  0  0  0  0  0  0
   12.0042   -3.9792    0.0000 C   0  0  0  0  0  0  0  0  0  0  0  0
  2  1  2  0  0  0  0
  3  1  1  0  0  0  0
  4  2  1  0  0  0  0
  5  3  1  0  0  0  0
  6  5  1  0  0  0  0
  7  2  1  0  0  0  0
  8  1  1  0  0  0  0
  9 12  1  0  0  0  0
 10  9  1  0  0  0  0
 11  6  2  0  0  0  0
 12 16  1  0  0  0  0
 13  5  2  0  0  0  0
 14  3  2  0  0  0  0
 15 10  1  0  0  0  0
 16 25  2  0  0  0  0
 17 10  2  0  0  0  0
 18  9  2  0  0  0  0
 19  8  2  0  0  0  0
 20 15  1  0  0  0  0
 21 17  1  0  0  0  0
 22  7  1  0  0  0  0
 23  7  1  0  0  0  0
 24  7  1  0  0  0  0
 25 13  1  0  0  0  0
 26 19  1  0  0  0  0
 27  8  1  0  0  0  0
 28 19  1  0  0  0  0
 29 26  1  0  0  0  0
 30 27  2  0  0  0  0
 31 30  1  0  0  0  0
  4  6  1  0  0  0  0
 31 28  2  0  0  0  0
 11 16  1  0  0  0  0
 21 20  2  0  0  0  0
M  END
>  <ID> (6135435)
6135435

>  <Supplier> (6135435)
ChemBridge

>  <clogP> (6135435)
4.130000000000000e+000

>  <RB> (6135435)
4

>  <tPSA> (6135435)
7.888000000000000e+001

>  <Hacc> (6135435)
6

>  <Hdon> (6135435)
0

>  <LogSw> (6135435)
-5.863999999999997e+000

>  <Group> (6135435)
2

>  <Core> (6135435)
080

$$$$
6135434
  -ISIS-  03310818232D

 20 22  0  0  0  0  0  0  0  0999 V2000
    1.9542   -1.9375    0.0000 C   0  0  0  0  0  0  0  0  0  0  0  0
    1.3042   -2.3125    0.0000 N   0  3  0  0  0  0  0  0  0  0  0  0
    1.9542   -1.1875    0.0000 C   0  0  0  0  0  0  0  0  0  0  0  0
    2.6042   -0.8042    0.0000 C   0  0  0  0  0  0  0  0  0  0  0  0
    1.3125   -0.8125    0.0000 N   0  0  3  0  0  0  0  0  0  0  0  0
    3.2542   -1.1792    0.0000 C   0  0  0  0  0  0  0  0  0  0  0  0
    3.9042   -0.8042    0.0000 N   0  0  3  0  0  0  0  0  0  0  0  0
    2.6042   -2.3125    0.0000 C   0  0  0  0  0  0  0  0  0  0  0  0
    0.6542   -1.9375    0.0000 O   0  5  0  0  0  0  0  0  0  0  0  0
    1.3042   -3.0625    0.0000 O   0  0  0  0  0  0  0  0  0  0  0  0
    3.2542   -1.9375    0.0000 C   0  0  0  0  0  0  0  0  0  0  0  0
    5.2042   -0.0542    0.0000 O   0  0  0  0  0  0  0  0  0  0  0  0
    3.9000   -0.0542    0.0000 C   0  0  0  0  0  0  0  0  0  0  0  0
    4.5542   -1.1792    0.0000 C   0  0  0  0  0  0  0  0  0  0  0  0
    0.6292   -1.1167    0.0000 C   0  0  0  0  0  0  0  0  0  0  0  0
    1.2292   -0.0667    0.0000 C   0  0  0  0  0  0  0  0  0  0  0  0
    5.2042   -0.8042    0.0000 C   0  0  0  0  0  0  0  0  0  0  0  0
    4.5500    0.3208    0.0000 C   0  0  0  0  0  0  0  0  0  0  0  0
    0.5000    0.0875    0.0000 C   0  0  0  0  0  0  0  0  0  0  0  0
    0.1250   -0.5625    0.0000 C   0  0  0  0  0  0  0  0  0  0  0  0
  2  1  1  0  0  0  0
  3  1  2  0  0  0  0
  4  3  1  0  0  0  0
  5  3  1  0  0  0  0
  6 11  1  0  0  0  0
  7  6  1  0  0  0  0
  8  1  1  0  0  0  0
  9  2  1  0  0  0  0
 10  2  2  0  0  0  0
 11  8  2  0  0  0  0
 12 17  1  0  0  0  0
 13  7  1  0  0  0  0
 14  7  1  0  0  0  0
 15  5  1  0  0  0  0
 16  5  1  0  0  0  0
 17 14  1  0  0  0  0
 18 13  1  0  0  0  0
 19 16  1  0  0  0  0
 20 15  1  0  0  0  0
  6  4  2  0  0  0  0
 19 20  1  0  0  0  0
 18 12  1  0  0  0  0
M  CHG  2   2   1   9  -1
M  END
>  <ID> (6135434)
6135434

>  <Supplier> (6135434)
ChemBridge

>  <clogP> (6135434)
2.780000000000000e+000

>  <RB> (6135434)
2

>  <tPSA> (6135434)
5.884999999999997e+001

>  <Hacc> (6135434)
3

>  <Hdon> (6135434)
0

>  <LogSw> (6135434)
-3.987000000000000e+000

>  <Group> (6135434)
2

$$$$
5217505
  -ISIS-  03310818212D

 24 25  0  0  0  0  0  0  0  0999 V2000
    3.1792    1.0833    0.0000 C   0  0  3  0  0  0  0  0  0  0  0  0
   -2.1208   -0.4542    0.0000 C   0  0  0  0  0  0  0  0  0  0  0  0
   -3.0000   -0.4542    0.0000 C   0  0  0  0  0  0  0  0  0  0  0  0
    3.1792    1.9625    0.0000 C   0  0  3  0  0  0  0  0  0  0  0  0
   -3.4458   -1.2167    0.0000 C   0  0  0  0  0  0  0  0  0  0  0  0
   -1.6625    0.3208    0.0000 N   0  0  0  0  0  0  0  0  0  0  0  0
   -2.1208   -1.9792    0.0000 C   0  0  3  0  0  0  0  0  0  0  0  0
    2.3000    1.0833    0.0000 C   0  0  0  0  0  0  0  0  0  0  0  0
   -1.6833   -1.2167    0.0000 C   0  0  0  0  0  0  0  0  0  0  0  0
    3.1792    0.2000    0.0000 F   0  0  0  0  0  0  0  0  0  0  0  0
    4.0542    1.0833    0.0000 F   0  0  0  0  0  0  0  0  0  0  0  0
   -4.3208   -1.2167    0.0000 O   0  0  0  0  0  0  0  0  0  0  0  0
   -3.0000   -1.9792    0.0000 C   0  0  0  0  0  0  0  0  0  0  0  0
    1.8542    0.3208    0.0000 O   0  0  0  0  0  0  0  0  0  0  0  0
   -0.7833    0.3208    0.0000 C   0  0  0  0  0  0  0  0  0  0  0  0
    3.9375    2.4000    0.0000 F   0  0  0  0  0  0  0  0  0  0  0  0
    2.4167    2.4000    0.0000 F   0  0  0  0  0  0  0  0  0  0  0  0
    0.9792    0.3208    0.0000 C   0  0  0  0  0  0  0  0  0  0  0  0
   -0.3458    1.0833    0.0000 C   0  0  0  0  0  0  0  0  0  0  0  0
   -0.3458   -0.4542    0.0000 C   0  0  0  0  0  0  0  0  0  0  0  0
    0.5375    1.0833    0.0000 C   0  0  0  0  0  0  0  0  0  0  0  0
    0.5375   -0.4542    0.0000 C   0  0  0  0  0  0  0  0  0  0  0  0
   -2.1208   -2.8542    0.0000 C   0  0  0  0  0  0  0  0  0  0  0  0
   -1.2458   -1.9792    0.0000 C   0  0  0  0  0  0  0  0  0  0  0  0
  2  6  1  0  0  0  0
  3  2  2  0  0  0  0
  4  1  1  0  0  0  0
  5  3  1  0  0  0  0
  6 15  1  0  0  0  0
  7  9  1  0  0  0  0
  8  1  1  0  0  0  0
  9  2  1  0  0  0  0
 10  1  1  0  0  0  0
 11  1  1  0  0  0  0
 12  5  2  0  0  0  0
 13  7  1  0  0  0  0
 14  8  1  0  0  0  0
 15 20  1  0  0  0  0
 16  4  1  0  0  0  0
 17  4  1  0  0  0  0
 18 14  1  0  0  0  0
 19 21  1  0  0  0  0
 20 22  2  0  0  0  0
 21 18  2  0  0  0  0
 22 18  1  0  0  0  0
 23  7  1  0  0  0  0
 24  7  1  0  0  0  0
 15 19  2  0  0  0  0
  5 13  1  0  0  0  0
M  END
>  <ID> (5217505)
5217505

>  <Supplier> (5217505)
ChemBridge

>  <clogP> (5217505)
4.060000000000000e+000

>  <RB> (5217505)
6

>  <tPSA> (5217505)
3.833000000000000e+001

>  <Hacc> (5217505)
2

>  <Hdon> (5217505)
1

>  <LogSw> (5217505)
-5.185000000000000e+000

>  <Group> (5217505)
1

>  <Core> (5217505)
185

$$$$
5217507
  -ISIS-  03310818212D

 15 15  0  0  0  0  0  0  0  0999 V2000
    1.6000    1.5500    0.0000 C   0  0  3  0  0  0  0  0  0  0  0  0
    1.6000    0.3208    0.0000 S   0  0  0  0  0  0  0  0  0  0  0  0
    0.5500    2.1500    0.0000 C   0  0  0  0  0  0  0  0  0  0  0  0
    2.6500    2.1625    0.0000 C   0  0  0  0  0  0  0  0  0  0  0  0
    3.7667    1.6208    0.0000 O   0  0  0  0  0  0  0  0  0  0  0  0
    0.4667    3.3708    0.0000 O   0  0  0  0  0  0  0  0  0  0  0  0
    0.5375   -0.3000    0.0000 C   0  0  0  0  0  0  0  0  0  0  0  0
   -1.5958   -1.5292    0.0000 C   0  0  0  0  0  0  0  0  0  0  0  0
   -2.6625   -2.1500    0.0000 Cl  0  0  0  0  0  0  0  0  0  0  0  0
    0.5375   -1.5292    0.0000 C   0  0  0  0  0  0  0  0  0  0  0  0
   -0.5333    0.3208    0.0000 C   0  0  0  0  0  0  0  0  0  0  0  0
   -1.5958   -0.3000    0.0000 C   0  0  0  0  0  0  0  0  0  0  0  0
   -0.5333   -2.1500    0.0000 C   0  0  0  0  0  0  0  0  0  0  0  0
    2.7167    3.4000    0.0000 C   0  0  0  0  0  0  0  0  0  0  0  0
   -0.5625    1.6125    0.0000 C   0  0  0  0  0  0  0  0  0  0  0  0
  2  1  1  0  0  0  0
  3  1  1  0  0  0  0
  4  1  1  0  0  0  0
  5  4  2  0  0  0  0
  6  3  2  0  0  0  0
  7  2  1  0  0  0  0
  8 12  1  0  0  0  0
  9  8  1  0  0  0  0
 10  7  2  0  0  0  0
 11  7  1  0  0  0  0
 12 11  2  0  0  0  0
 13 10  1  0  0  0  0
 14  4  1  0  0  0  0
 15  3  1  0  0  0  0
  8 13  2  0  0  0  0
M  END
>  <ID> (5217507)
5217507

>  <Supplier> (5217507)
ChemBridge

>  <clogP> (5217507)
2.110000000000000e+000

>  <RB> (5217507)
4

>  <tPSA> (5217507)
3.414000000000000e+001

>  <Hacc> (5217507)
2

>  <Hdon> (5217507)
0

>  <LogSw> (5217507)
-2.773000000000000e+000

>  <Group> (5217507)
1

$$$$
5217501
  -ISIS-  03310818212D

 32 34  0  0  0  0  0  0  0  0999 V2000
    1.8000    1.0125    0.0000 N   0  3  0  0  0  0  0  0  0  0  0  0
    1.0542    0.4833    0.0000 C   0  0  0  0  0  0  0  0  0  0  0  0
    0.2792    1.0333    0.0000 N   0  0  3  0  0  0  0  0  0  0  0  0
    1.5042    1.9125    0.0000 C   0  0  0  0  0  0  0  0  0  0  0  0
    0.5667    1.9208    0.0000 C   0  0  0  0  0  0  0  0  0  0  0  0
   -1.8833   -1.3792    0.0000 C   0  0  3  0  0  0  0  0  0  0  0  0
   -0.8125   -0.1667    0.0000 C   0  0  0  0  0  0  0  0  0  0  0  0
   -0.6208    0.7458    0.0000 C   0  0  0  0  0  0  0  0  0  0  0  0
   -1.7000   -0.4792    0.0000 O   0  0  0  0  0  0  0  0  0  0  0  0
   -2.7833   -1.6542    0.0000 C   0  0  3  0  0  0  0  0  0  0  0  0
    1.0667   -0.4500    0.0000 C   0  0  0  0  0  0  0  0  0  0  0  0
   -2.9833   -2.6000    0.0000 C   0  0  0  0  0  0  0  0  0  0  0  0
   -1.1833   -2.0292    0.0000 C   0  0  0  0  0  0  0  0  0  0  0  0
    2.6667    0.7208    0.0000 C   0  0  0  0  0  0  0  0  0  0  0  0
   -0.5333   -0.9875    0.0000 O   0  0  0  0  0  0  0  0  0  0  0  0
    3.8042    3.2708    0.0000 Cl  0  5  0  0  0  0  0  0  0  0  0  0
    0.2792   -0.9292    0.0000 C   0  0  0  0  0  0  0  0  0  0  0  0
    1.9000   -0.8875    0.0000 C   0  0  0  0  0  0  0  0  0  0  0  0
   -3.4458   -1.0167    0.0000 C   0  0  3  0  0  0  0  0  0  0  0  0
    1.1167   -2.3167    0.0000 C   0  0  0  0  0  0  0  0  0  0  0  0
   -2.2708   -3.2375    0.0000 C   0  0  0  0  0  0  0  0  0  0  0  0
    0.3000   -1.8667    0.0000 C   0  0  0  0  0  0  0  0  0  0  0  0
    1.9167   -1.8292    0.0000 C   0  0  0  0  0  0  0  0  0  0  0  0
   -1.3708   -2.9500    0.0000 C   0  0  3  0  0  0  0  0  0  0  0  0
    1.1292   -3.2375    0.0000 F   0  0  0  0  0  0  0  0  0  0  0  0
    1.9667    2.7125    0.0000 C   0  0  0  0  0  0  0  0  0  0  0  0
    0.1167    2.7208    0.0000 C   0  0  0  0  0  0  0  0  0  0  0  0
   -4.3333   -1.2792    0.0000 C   0  0  0  0  0  0  0  0  0  0  0  0
   -3.2458   -0.1292    0.0000 C   0  0  0  0  0  0  0  0  0  0  0  0
   -0.7000   -3.5667    0.0000 C   0  0  0  0  0  0  0  0  0  0  0  0
    1.4875    3.5208    0.0000 C   0  0  0  0  0  0  0  0  0  0  0  0
    0.5875    3.5208    0.0000 C   0  0  0  0  0  0  0  0  0  0  0  0
  2  1  2  0  0  0  0
  3  2  1  0  0  0  0
  4  1  1  0  0  0  0
  5  4  2  0  0  0  0
  6  9  1  0  0  0  0
  7  8  1  0  0  0  0
  8  3  1  0  0  0  0
  9  7  1  0  0  0  0
 10  6  1  0  0  0  0
 11  2  1  0  0  0  0
 12 10  1  0  0  0  0
 13  6  1  0  0  0  0
 14  1  1  0  0  0  0
 15  7  2  0  0  0  0
 17 11  1  0  0  0  0
 18 11  2  0  0  0  0
 19 10  1  0  0  0  0
 20 23  2  0  0  0  0
 21 24  1  0  0  0  0
 22 17  2  0  0  0  0
 23 18  1  0  0  0  0
 24 13  1  0  0  0  0
 25 20  1  0  0  0  0
 26  4  1  0  0  0  0
 27  5  1  0  0  0  0
 28 19  1  0  0  0  0
 29 19  1  0  0  0  0
 30 24  1  0  0  0  0
 31 26  2  0  0  0  0
 32 31  1  0  0  0  0
  3  5  1  0  0  0  0
 27 32  2  0  0  0  0
 22 20  1  0  0  0  0
 21 12  1  0  0  0  0
M  CHG  2   1   1  16  -1
M  END
>  <ID> (5217501)
5217501

>  <Supplier> (5217501)
ChemBridge

>  <clogP> (5217501)
5.410000000000000e+000

>  <RB> (5217501)
5

>  <tPSA> (5217501)
3.511000000000000e+001

>  <Hacc> (5217501)
4

>  <Hdon> (5217501)
0

>  <LogSw> (5217501)
-6.900000000000000e+000

>  <Group> (5217501)
1

>  <Core> (5217501)
333

$$$$
5217500
  -ISIS-  03310818212D

 32 34  0  0  0  0  0  0  0  0999 V2000
    1.8000    1.0125    0.0000 N   0  3  0  0  0  0  0  0  0  0  0  0
    1.0542    0.4833    0.0000 C   0  0  0  0  0  0  0  0  0  0  0  0
    0.2792    1.0333    0.0000 N   0  0  3  0  0  0  0  0  0  0  0  0
    1.5042    1.9125    0.0000 C   0  0  0  0  0  0  0  0  0  0  0  0
    0.5667    1.9208    0.0000 C   0  0  0  0  0  0  0  0  0  0  0  0
   -1.8833   -1.3792    0.0000 C   0  0  3  0  0  0  0  0  0  0  0  0
   -0.8125   -0.1667    0.0000 C   0  0  0  0  0  0  0  0  0  0  0  0
   -0.6208    0.7458    0.0000 C   0  0  0  0  0  0  0  0  0  0  0  0
   -1.7000   -0.4792    0.0000 O   0  0  0  0  0  0  0  0  0  0  0  0
   -2.7833   -1.6542    0.0000 C   0  0  3  0  0  0  0  0  0  0  0  0
    1.0667   -0.4500    0.0000 C   0  0  0  0  0  0  0  0  0  0  0  0
   -2.9833   -2.6000    0.0000 C   0  0  0  0  0  0  0  0  0  0  0  0
   -1.1833   -2.0292    0.0000 C   0  0  0  0  0  0  0  0  0  0  0  0
    2.6667    0.7208    0.0000 C   0  0  0  0  0  0  0  0  0  0  0  0
   -0.5333   -0.9875    0.0000 O   0  0  0  0  0  0  0  0  0  0  0  0
    3.8042    3.2708    0.0000 Cl  0  5  0  0  0  0  0  0  0  0  0  0
    0.2792   -0.9292    0.0000 C   0  0  0  0  0  0  0  0  0  0  0  0
    1.9000   -0.8875    0.0000 C   0  0  0  0  0  0  0  0  0  0  0  0
   -3.4458   -1.0167    0.0000 C   0  0  3  0  0  0  0  0  0  0  0  0
    1.1167   -2.3167    0.0000 C   0  0  0  0  0  0  0  0  0  0  0  0
   -2.2708   -3.2375    0.0000 C   0  0  0  0  0  0  0  0  0  0  0  0
    0.3000   -1.8667    0.0000 C   0  0  0  0  0  0  0  0  0  0  0  0
    1.9167   -1.8292    0.0000 C   0  0  0  0  0  0  0  0  0  0  0  0
   -1.3708   -2.9500    0.0000 C   0  0  3  0  0  0  0  0  0  0  0  0
    1.1292   -3.2375    0.0000 Cl  0  0  0  0  0  0  0  0  0  0  0  0
    1.9667    2.7125    0.0000 C   0  0  0  0  0  0  0  0  0  0  0  0
    0.1167    2.7208    0.0000 C   0  0  0  0  0  0  0  0  0  0  0  0
   -4.3333   -1.2792    0.0000 C   0  0  0  0  0  0  0  0  0  0  0  0
   -3.2458   -0.1292    0.0000 C   0  0  0  0  0  0  0  0  0  0  0  0
   -0.7000   -3.5667    0.0000 C   0  0  0  0  0  0  0  0  0  0  0  0
    1.4875    3.5208    0.0000 C   0  0  0  0  0  0  0  0  0  0  0  0
    0.5875    3.5208    0.0000 C   0  0  0  0  0  0  0  0  0  0  0  0
  2  1  2  0  0  0  0
  3  2  1  0  0  0  0
  4  1  1  0  0  0  0
  5  4  2  0  0  0  0
  6  9  1  0  0  0  0
  7  8  1  0  0  0  0
  8  3  1  0  0  0  0
  9  7  1  0  0  0  0
 10  6  1  0  0  0  0
 11  2  1  0  0  0  0
 12 10  1  0  0  0  0
 13  6  1  0  0  0  0
 14  1  1  0  0  0  0
 15  7  2  0  0  0  0
 17 11  1  0  0  0  0
 18 11  2  0  0  0  0
 19 10  1  0  0  0  0
 20 23  2  0  0  0  0
 21 24  1  0  0  0  0
 22 17  2  0  0  0  0
 23 18  1  0  0  0  0
 24 13  1  0  0  0  0
 25 20  1  0  0  0  0
 26  4  1  0  0  0  0
 27  5  1  0  0  0  0
 28 19  1  0  0  0  0
 29 19  1  0  0  0  0
 30 24  1  0  0  0  0
 31 26  2  0  0  0  0
 32 31  1  0  0  0  0
  5  3  1  0  0  0  0
 32 27  2  0  0  0  0
 22 20  1  0  0  0  0
 12 21  1  0  0  0  0
M  CHG  2   1   1  16  -1
M  END
>  <ID> (5217500)
5217500

>  <Supplier> (5217500)
ChemBridge

>  <clogP> (5217500)
5.730000000000000e+000

>  <RB> (5217500)
5

>  <tPSA> (5217500)
3.511000000000000e+001

>  <Hacc> (5217500)
2

>  <Hdon> (5217500)
0

>  <LogSw> (5217500)
-7.293000000000000e+000

>  <Group> (5217500)
1

>  <Core> (5217500)
333

$$$$
7705577
  -ISIS-  03310818262D

 30 33  0  0  0  0  0  0  0  0999 V2000
    7.8917  -13.2292    0.0000 S   0  0  3  0  0  0  0  0  0  0  0  0
    7.9292   -7.6667    0.0000 C   0  0  0  0  0  0  0  0  0  0  0  0
    8.7417   -8.1542    0.0000 C   0  0  0  0  0  0  0  0  0  0  0  0
    7.1417   -8.1292    0.0000 C   0  0  0  0  0  0  0  0  0  0  0  0
    7.9292   -6.7417    0.0000 C   0  0  0  0  0  0  0  0  0  0  0  0
    7.9042  -12.3042    0.0000 C   0  0  0  0  0  0  0  0  0  0  0  0
    7.1417   -6.2792    0.0000 C   0  0  0  0  0  0  0  0  0  0  0  0
    8.8167  -13.2500    0.0000 O   0  0  0  0  0  0  0  0  0  0  0  0
    6.9667  -13.2167    0.0000 O   0  0  0  0  0  0  0  0  0  0  0  0
    7.8750  -14.1542    0.0000 C   0  0  0  0  0  0  0  0  0  0  0  0
    6.3542   -7.6667    0.0000 C   0  0  0  0  0  0  0  0  0  0  0  0
    6.3542   -6.7417    0.0000 C   0  0  0  0  0  0  0  0  0  0  0  0
    8.7292   -9.0792    0.0000 O   0  0  0  0  0  0  0  0  0  0  0  0
    9.5542   -7.6792    0.0000 O   0  0  0  0  0  0  0  0  0  0  0  0
    8.7125  -11.8542    0.0000 C   0  0  0  0  0  0  0  0  0  0  0  0
    7.1042  -11.8375    0.0000 C   0  0  0  0  0  0  0  0  0  0  0  0
    8.7417   -6.2667    0.0000 O   0  0  0  0  0  0  0  0  0  0  0  0
    7.9292   -9.5375    0.0000 C   0  0  0  0  0  0  0  0  0  0  0  0
    7.9167  -10.4542    0.0000 C   0  0  0  0  0  0  0  0  0  0  0  0
    7.1167  -10.9167    0.0000 C   0  0  0  0  0  0  0  0  0  0  0  0
    8.7167  -10.9292    0.0000 C   0  0  0  0  0  0  0  0  0  0  0  0
    5.5542   -8.1292    0.0000 C   0  0  0  0  0  0  0  0  0  0  0  0
    5.5542   -6.2792    0.0000 C   0  0  0  0  0  0  0  0  0  0  0  0
    8.6542  -14.6292    0.0000 C   0  0  0  0  0  0  0  0  0  0  0  0
    7.0625  -14.5917    0.0000 C   0  0  0  0  0  0  0  0  0  0  0  0
    4.7750   -6.7417    0.0000 C   0  0  0  0  0  0  0  0  0  0  0  0
    4.7750   -7.6667    0.0000 C   0  0  0  0  0  0  0  0  0  0  0  0
    7.0417  -15.5167    0.0000 C   0  0  0  0  0  0  0  0  0  0  0  0
    8.6417  -15.5500    0.0000 C   0  0  0  0  0  0  0  0  0  0  0  0
    7.8292  -16.0000    0.0000 C   0  0  0  0  0  0  0  0  0  0  0  0
  2  3  1  0  0  0  0
  3 13  1  0  0  0  0
  4  2  2  0  0  0  0
  5  2  1  0  0  0  0
  6  1  1  0  0  0  0
  7  5  2  0  0  0  0
  8  1  2  0  0  0  0
  9  1  2  0  0  0  0
 10  1  1  0  0  0  0
 11  4  1  0  0  0  0
 12  7  1  0  0  0  0
 13 18  1  0  0  0  0
 14  3  2  0  0  0  0
 15  6  1  0  0  0  0
 16  6  2  0  0  0  0
 17  5  1  0  0  0  0
 18 19  1  0  0  0  0
 19 20  2  0  0  0  0
 20 16  1  0  0  0  0
 21 15  2  0  0  0  0
 22 11  1  0  0  0  0
 23 12  1  0  0  0  0
 24 10  1  0  0  0  0
 25 10  2  0  0  0  0
 26 23  2  0  0  0  0
 27 22  2  0  0  0  0
 28 25  1  0  0  0  0
 29 24  2  0  0  0  0
 30 28  2  0  0  0  0
 19 21  1  0  0  0  0
 29 30  1  0  0  0  0
 11 12  2  0  0  0  0
 27 26  1  0  0  0  0
M  END
>  <ID> (7705577)
7705577

>  <Supplier> (7705577)
ChemBridge

>  <clogP> (7705577)
5.624999999999995e+000

>  <RB> (7705577)
6

>  <tPSA> (7705577)
8.067000000000000e+001

>  <Hacc> (7705577)
5

>  <Hdon> (7705577)
1

>  <LogSw> (7705577)
-6.881000000000000e+000

>  <Group> (7705577)
1

$$$$
7255416
  -ISIS-  03310818262D

 24 28  0  0  0  0  0  0  0  0999 V2000
   -2.9000    1.2458    0.0000 C   0  0  0  0  0  0  0  0  0  0  0  0
   -2.8333    0.3708    0.0000 C   0  0  0  0  0  0  0  0  0  0  0  0
   -3.7500    1.4500    0.0000 C   0  0  0  0  0  0  0  0  0  0  0  0
   -3.6125    0.0208    0.0000 S   0  0  0  0  0  0  0  0  0  0  0  0
   -2.2333    1.7708    0.0000 C   0  0  0  0  0  0  0  0  0  0  0  0
    0.1792    0.8833    0.0000 C   0  0  3  0  0  0  0  0  0  0  0  0
   -4.2208    0.6958    0.0000 C   0  0  0  0  0  0  0  0  0  0  0  0
    0.2667    2.2125    0.0000 C   0  0  3  0  0  0  0  0  0  0  0  0
    1.4000    1.4458    0.0000 C   0  0  3  0  0  0  0  0  0  0  0  0
    1.4375    2.1125    0.0000 C   0  0  3  0  0  0  0  0  0  0  0  0
   -0.1708    1.5458    0.0000 C   0  0  0  0  0  0  0  0  0  0  0  0
    0.9542    0.8333    0.0000 C   0  0  0  0  0  0  0  0  0  0  0  0
    0.9042    1.2458    0.0000 C   0  0  0  0  0  0  0  0  0  0  0  0
   -2.3625    2.6333    0.0000 O   0  0  0  0  0  0  0  0  0  0  0  0
   -1.4208    1.4625    0.0000 N   0  0  0  0  0  0  0  0  0  0  0  0
    0.9375    2.9708    0.0000 C   0  0  0  0  0  0  0  0  0  0  0  0
    1.1167    2.1625    0.0000 C   0  0  0  0  0  0  0  0  0  0  0  0
    2.2875    1.9458    0.0000 C   0  0  0  0  0  0  0  0  0  0  0  0
   -0.4708    0.3333    0.0000 C   0  0  0  0  0  0  0  0  0  0  0  0
   -1.2958    0.6125    0.0000 C   0  0  0  0  0  0  0  0  0  0  0  0
   -4.1958    2.2083    0.0000 C   0  0  0  0  0  0  0  0  0  0  0  0
   -5.0958    0.7125    0.0000 C   0  0  0  0  0  0  0  0  0  0  0  0
   -5.0625    2.2125    0.0000 C   0  0  0  0  0  0  0  0  0  0  0  0
   -5.5208    1.4833    0.0000 C   0  0  0  0  0  0  0  0  0  0  0  0
  2  1  2  0  0  0  0
  3  1  1  0  0  0  0
  4  2  1  0  0  0  0
  5  1  1  0  0  0  0
  6 19  1  0  0  0  0
  7  3  2  0  0  0  0
  8 11  1  0  0  0  0
  9 12  1  0  0  0  0
 10 13  1  0  0  0  0
 11  6  1  0  0  0  0
 12  6  1  0  0  0  0
 13  6  1  0  0  0  0
 14  5  2  0  0  0  0
 15  5  1  0  0  0  0
 16 10  1  0  0  0  0
 17  9  1  0  0  0  0
 18 10  1  0  0  0  0
 19 20  1  0  0  0  0
 20 15  1  0  0  0  0
 21  3  1  0  0  0  0
 22  7  1  0  0  0  0
 23 21  2  0  0  0  0
 24 23  1  0  0  0  0
  4  7  1  0  0  0  0
 24 22  2  0  0  0  0
 18  9  1  0  0  0  0
  8 16  1  0  0  0  0
  8 17  1  0  0  0  0
M  END
>  <ID> (7255416)
7255416

>  <Supplier> (7255416)
ChemBridge

>  <clogP> (7255416)
5.890000000000000e+000

>  <RB> (7255416)
4

>  <tPSA> (7255416)
2.910000000000000e+001

>  <Hacc> (7255416)
1

>  <Hdon> (7255416)
1

>  <LogSw> (7255416)
-6.706000000000000e+000

>  <Group> (7255416)
3

$$$$
7255412
  -ISIS-  03310818262D

 19 20  0  0  0  0  0  0  0  0999 V2000
    1.3042   -0.3667    0.0000 C   0  0  0  0  0  0  0  0  0  0  0  0
    1.7667   -1.0875    0.0000 S   0  0  0  0  0  0  0  0  0  0  0  0
    1.8667    0.2958    0.0000 N   0  0  0  0  0  0  0  0  0  0  0  0
    2.6667   -0.0292    0.0000 N   0  0  0  0  0  0  0  0  0  0  0  0
    2.6042   -0.8792    0.0000 C   0  0  0  0  0  0  0  0  0  0  0  0
    0.4292   -0.1875    0.0000 N   0  0  0  0  0  0  0  0  0  0  0  0
    0.1292    0.6208    0.0000 C   0  0  0  0  0  0  0  0  0  0  0  0
    0.7042    1.2833    0.0000 O   0  0  0  0  0  0  0  0  0  0  0  0
   -1.0125    1.6125    0.0000 O   0  0  0  0  0  0  0  0  0  0  0  0
   -0.7125    0.7708    0.0000 C   0  0  0  0  0  0  0  0  0  0  0  0
    3.3042   -1.4500    0.0000 C   0  0  0  0  0  0  0  0  0  0  0  0
   -1.8958    1.7958    0.0000 C   0  0  0  0  0  0  0  0  0  0  0  0
    4.1042   -1.1167    0.0000 O   0  0  0  0  0  0  0  0  0  0  0  0
   -2.4708    1.1333    0.0000 C   0  0  0  0  0  0  0  0  0  0  0  0
   -2.1500    2.6333    0.0000 C   0  0  0  0  0  0  0  0  0  0  0  0
    4.7875   -1.6542    0.0000 C   0  0  0  0  0  0  0  0  0  0  0  0
   -3.0125    2.8125    0.0000 C   0  0  0  0  0  0  0  0  0  0  0  0
   -3.3333    1.3458    0.0000 C   0  0  0  0  0  0  0  0  0  0  0  0
   -3.5958    2.1500    0.0000 C   0  0  0  0  0  0  0  0  0  0  0  0
  2  1  1  0  0  0  0
  3  1  2  0  0  0  0
  4  3  1  0  0  0  0
  5  2  1  0  0  0  0
  6  1  1  0  0  0  0
  7  6  1  0  0  0  0
  8  7  2  0  0  0  0
  9 10  1  0  0  0  0
 10  7  1  0  0  0  0
 11  5  1  0  0  0  0
 12  9  1  0  0  0  0
 13 11  1  0  0  0  0
 14 12  2  0  0  0  0
 15 12  1  0  0  0  0
 16 13  1  0  0  0  0
 17 15  2  0  0  0  0
 18 14  1  0  0  0  0
 19 17  1  0  0  0  0
  5  4  2  0  0  0  0
 18 19  2  0  0  0  0
M  END
>  <ID> (7255412)
7255412

>  <Supplier> (7255412)
ChemBridge

>  <clogP> (7255412)
8.200000000000000e-001

>  <RB> (7255412)
5

>  <tPSA> (7255412)
7.334000000000000e+001

>  <Hacc> (7255412)
5

>  <Hdon> (7255412)
1

>  <LogSw> (7255412)
-1.938000000000000e+000

>  <Group> (7255412)
3

>  <Core> (7255412)
246

$$$$
7255411
  -ISIS-  03310818262D

 21 22  0  0  0  0  0  0  0  0999 V2000
   -4.0000    2.3208    0.0000 C   0  0  0  0  0  0  0  0  0  0  0  0
   -3.1458    1.8208    0.0000 C   0  0  0  0  0  0  0  0  0  0  0  0
   -2.2625    2.3458    0.0000 C   0  0  0  0  0  0  0  0  0  0  0  0
   -4.8833    1.8208    0.0000 N   0  0  0  0  0  0  0  0  0  0  0  0
   -4.0000    3.3458    0.0000 O   0  0  0  0  0  0  0  0  0  0  0  0
   -1.3833    1.8208    0.0000 C   0  0  0  0  0  0  0  0  0  0  0  0
   -5.7500    2.3333    0.0000 C   0  0  0  0  0  0  0  0  0  0  0  0
   -0.5000    2.3208    0.0000 C   0  0  0  0  0  0  0  0  0  0  0  0
   -6.6375    1.8125    0.0000 C   0  0  0  0  0  0  0  0  0  0  0  0
   -8.4042    0.7958    0.0000 C   0  0  0  0  0  0  0  0  0  0  0  0
    0.3792    1.8208    0.0000 C   0  0  0  0  0  0  0  0  0  0  0  0
    1.2500    2.3333    0.0000 Cl  0  0  0  0  0  0  0  0  0  0  0  0
   -6.6542    0.7833    0.0000 C   0  0  0  0  0  0  0  0  0  0  0  0
   -7.5167    2.3208    0.0000 C   0  0  0  0  0  0  0  0  0  0  0  0
   -7.5292    0.2833    0.0000 C   0  0  0  0  0  0  0  0  0  0  0  0
   -8.4042    1.8000    0.0000 C   0  0  0  0  0  0  0  0  0  0  0  0
   -9.2792    0.2958    0.0000 O   0  0  0  0  0  0  0  0  0  0  0  0
   -0.5000    0.3208    0.0000 C   0  0  0  0  0  0  0  0  0  0  0  0
   -1.3833    0.8208    0.0000 C   0  0  0  0  0  0  0  0  0  0  0  0
    0.3792    0.8000    0.0000 C   0  0  0  0  0  0  0  0  0  0  0  0
   -9.3000   -0.7167    0.0000 C   0  0  0  0  0  0  0  0  0  0  0  0
  2  1  1  0  0  0  0
  3  2  2  0  0  0  0
  4  1  1  0  0  0  0
  5  1  2  0  0  0  0
  6  3  1  0  0  0  0
  7  4  1  0  0  0  0
  8  6  1  0  0  0  0
  9  7  1  0  0  0  0
 10 16  2  0  0  0  0
 11  8  2  0  0  0  0
 12 11  1  0  0  0  0
 13  9  1  0  0  0  0
 14  9  2  0  0  0  0
 15 13  2  0  0  0  0
 16 14  1  0  0  0  0
 17 10  1  0  0  0  0
 18 19  1  0  0  0  0
 19  6  2  0  0  0  0
 20 18  2  0  0  0  0
 21 17  1  0  0  0  0
 15 10  1  0  0  0  0
 20 11  1  0  0  0  0
M  END
>  <ID> (7255411)
7255411

>  <Supplier> (7255411)
ChemBridge

>  <clogP> (7255411)
4.200000000000000e+000

>  <RB> (7255411)
4

>  <tPSA> (7255411)
3.833000000000000e+001

>  <Hacc> (7255411)
2

>  <Hdon> (7255411)
1

>  <LogSw> (7255411)
-4.988000000000000e+000

>  <Group> (7255411)
2

>  <Core> (7255411)
435

$$$$
7818757
  -ISIS-  03310818272D

 27 28  0  0  0  0  0  0  0  0999 V2000
   -5.8208    1.2708    0.0000 C   0  0  0  0  0  0  0  0  0  0  0  0
    1.4917   -1.2417    0.0000 C   0  0  0  0  0  0  0  0  0  0  0  0
    2.9542   -3.7667    0.0000 N   0  0  0  0  0  0  0  0  0  0  0  0
   -2.9208    1.2708    0.0000 N   0  0  0  0  0  0  0  0  0  0  0  0
    5.8667   -3.7667    0.0000 C   0  0  0  0  0  0  0  0  0  0  0  0
    7.2917   -1.2417    0.0000 C   0  0  0  0  0  0  0  0  0  0  0  0
   -1.4083   -1.2417    0.0000 N   0  0  0  0  0  0  0  0  0  0  0  0
   10.1750   -1.2417    0.0000 C   0  0  0  0  0  0  0  0  0  0  0  0
   -7.2542    3.7708    0.0000 C   0  0  3  0  0  0  0  0  0  0  0  0
    2.9417    1.2625    0.0000 S   0  0  0  0  0  0  0  0  0  0  0  0
  -10.1792    3.7833    0.0000 O   0  0  0  0  0  0  0  0  0  0  0  0
   -7.2750   -1.2417    0.0000 O   0  0  0  0  0  0  0  0  0  0  0  0
    7.2917   -6.2750    0.0000 C   0  0  0  0  0  0  0  0  0  0  0  0
   11.6375   -3.7667    0.0000 C   0  0  0  0  0  0  0  0  0  0  0  0
  -11.6167    1.2708    0.0000 C   0  0  0  0  0  0  0  0  0  0  0  0
  -14.5042   -3.7417    0.0000 C   0  0  0  0  0  0  0  0  0  0  0  0
   10.1917   -6.2750    0.0000 C   0  0  0  0  0  0  0  0  0  0  0  0
    5.8542    1.2625    0.0000 O   0  0  0  0  0  0  0  0  0  0  0  0
  -15.9042   -6.2750    0.0000 Br  0  0  0  0  0  0  0  0  0  0  0  0
  -10.1542   -1.2250    0.0000 C   0  0  0  0  0  0  0  0  0  0  0  0
  -14.5375    1.2333    0.0000 C   0  0  0  0  0  0  0  0  0  0  0  0
  -16.0000   -1.2625    0.0000 C   0  0  0  0  0  0  0  0  0  0  0  0
  -11.6167   -3.7417    0.0000 C   0  0  0  0  0  0  0  0  0  0  0  0
   14.5500   -3.7667    0.0000 O   0  0  0  0  0  0  0  0  0  0  0  0
   -5.8458    6.2750    0.0000 C   0  0  0  0  0  0  0  0  0  0  0  0
    7.2917    3.7708    0.0000 C   0  0  0  0  0  0  0  0  0  0  0  0
   16.0000   -1.2250    0.0000 C   0  0  0  0  0  0  0  0  0  0  0  0
  2  7  1  0  0  0  0
  3  2  1  0  0  0  0
  4  1  1  0  0  0  0
  5  3  1  0  0  0  0
  6  5  2  0  0  0  0
  7  4  1  0  0  0  0
  8  6  1  0  0  0  0
  9  1  1  0  0  0  0
 10  2  2  0  0  0  0
 11  9  1  0  0  0  0
 12  1  2  0  0  0  0
 13  5  1  0  0  0  0
 14 17  1  0  0  0  0
 15 11  1  0  0  0  0
 16 22  1  0  0  0  0
 17 13  2  0  0  0  0
 18  6  1  0  0  0  0
 19 16  1  0  0  0  0
 20 15  2  0  0  0  0
 21 15  1  0  0  0  0
 22 21  2  0  0  0  0
 23 20  1  0  0  0  0
 24 14  1  0  0  0  0
 25  9  1  0  0  0  0
 26 18  1  0  0  0  0
 27 24  1  0  0  0  0
 16 23  2  0  0  0  0
  8 14  2  0  0  0  0
M  END
>  <ID> (7818757)
7818757

>  <Supplier> (7818757)
ChemBridge

>  <clogP> (7818757)
3.360000000000000e+000

>  <RB> (7818757)
5

>  <tPSA> (7818757)
8.085000000000002e+001

>  <Hacc> (7818757)
4

>  <Hdon> (7818757)
3

>  <LogSw> (7818757)
-5.381000000000000e+000

>  <Group> (7818757)
1

>  <Core> (7818757)
315

$$$$
7977340
  -ISIS-  03310818282D

 34 36  0  0  0  0  0  0  0  0999 V2000
    3.2750    5.2917    0.0000 S   0  0  3  0  0  0  0  0  0  0  0  0
    4.0250    5.2917    0.0000 C   0  0  0  0  0  0  0  0  0  0  0  0
    7.2667    3.1708    0.0000 C   0  0  0  0  0  0  0  0  0  0  0  0
    5.5250    4.0000    0.0000 C   0  0  0  0  0  0  0  0  0  0  0  0
    6.2750    4.0000    0.0000 N   0  0  0  0  0  0  0  0  0  0  0  0
    3.2125    4.5417    0.0000 N   0  0  0  0  0  0  0  0  0  0  0  0
    6.5292    3.3000    0.0000 C   0  0  0  0  0  0  0  0  0  0  0  0
    4.4000    4.6500    0.0000 C   0  0  0  0  0  0  0  0  0  0  0  0
    7.7542    3.7458    0.0000 C   0  0  0  0  0  0  0  0  0  0  0  0
    5.1500    4.6500    0.0000 C   0  0  0  0  0  0  0  0  0  0  0  0
    3.3417    6.0417    0.0000 O   0  0  0  0  0  0  0  0  0  0  0  0
    2.5375    5.4292    0.0000 O   0  0  0  0  0  0  0  0  0  0  0  0
    4.4000    5.9500    0.0000 C   0  0  0  0  0  0  0  0  0  0  0  0
    5.1500    3.3583    0.0000 O   0  0  0  0  0  0  0  0  0  0  0  0
    7.5750    4.2292    0.0000 O   0  0  0  0  0  0  0  0  0  0  0  0
    5.5250    5.2917    0.0000 C   0  0  0  0  0  0  0  0  0  0  0  0
    5.1500    5.9500    0.0000 C   0  0  0  0  0  0  0  0  0  0  0  0
    2.4875    4.3542    0.0000 C   0  0  0  0  0  0  0  0  0  0  0  0
    8.4917    3.6125    0.0000 N   0  0  0  0  0  0  0  0  0  0  0  0
    1.0375    3.9833    0.0000 C   0  0  0  0  0  0  0  0  0  0  0  0
    7.5292    2.4625    0.0000 C   0  0  0  0  0  0  0  0  0  0  0  0
    2.2917    3.6458    0.0000 C   0  0  0  0  0  0  0  0  0  0  0  0
    1.9542    4.8875    0.0000 C   0  0  0  0  0  0  0  0  0  0  0  0
    1.2292    4.6917    0.0000 C   0  0  0  0  0  0  0  0  0  0  0  0
    1.5667    3.4458    0.0000 C   0  0  0  0  0  0  0  0  0  0  0  0
    6.0500    2.7250    0.0000 C   0  0  0  0  0  0  0  0  0  0  0  0
    9.9792    4.7792    0.0000 O   0  0  0  0  0  0  0  0  0  0  0  0
    4.0250    6.5917    0.0000 C   0  0  0  0  0  0  0  0  0  0  0  0
    8.8667    4.2542    0.0000 C   0  0  0  0  0  0  0  0  0  0  0  0
    9.6042    4.1292    0.0000 C   0  0  0  0  0  0  0  0  0  0  0  0
    0.3125    3.7833    0.0000 C   0  0  0  0  0  0  0  0  0  0  0  0
   10.7292    4.7792    0.0000 C   0  0  0  0  0  0  0  0  0  0  0  0
    7.0417    1.8958    0.0000 C   0  0  0  0  0  0  0  0  0  0  0  0
    6.3042    2.0208    0.0000 C   0  0  0  0  0  0  0  0  0  0  0  0
  2  1  1  0  0  0  0
  3  7  1  0  0  0  0
  4 10  1  0  0  0  0
  5  4  1  0  0  0  0
  6  1  1  0  0  0  0
  7  5  1  0  0  0  0
  8  2  1  0  0  0  0
  9  3  1  0  0  0  0
 10  8  2  0  0  0  0
 11  1  2  0  0  0  0
 12  1  2  0  0  0  0
 13  2  2  0  0  0  0
 14  4  2  0  0  0  0
 15  9  2  0  0  0  0
 16 17  2  0  0  0  0
 17 13  1  0  0  0  0
 18  6  1  0  0  0  0
 19  9  1  0  0  0  0
 20 24  2  0  0  0  0
 21  3  2  0  0  0  0
 22 18  1  0  0  0  0
 23 18  2  0  0  0  0
 24 23  1  0  0  0  0
 25 22  2  0  0  0  0
 26  7  2  0  0  0  0
 27 30  1  0  0  0  0
 28 13  1  0  0  0  0
 29 19  1  0  0  0  0
 30 29  1  0  0  0  0
 31 20  1  0  0  0  0
 32 27  1  0  0  0  0
 33 34  2  0  0  0  0
 34 26  1  0  0  0  0
 20 25  1  0  0  0  0
 10 16  1  0  0  0  0
 21 33  1  0  0  0  0
M  END
>  <ID> (7977340)
7977340

>  <Supplier> (7977340)
ChemBridge

>  <clogP> (7977340)
3.895000000000000e+000

>  <RB> (7977340)
7

>  <tPSA> (7977340)
1.136000000000000e+002

>  <Hacc> (7977340)
5

>  <Hdon> (7977340)
3

>  <LogSw> (7977340)
-6.036000000000001e+000

>  <Group> (7977340)
1

>  <Core> (7977340)
141

$$$$
5484910
  -ISIS-  03310818222D

 25 26  0  0  0  0  0  0  0  0999 V2000
    4.5500   -1.2500    0.0000 C   0  0  0  0  0  0  0  0  0  0  0  0
    3.9000   -1.6167    0.0000 C   0  0  0  0  0  0  0  0  0  0  0  0
    2.6000   -1.6167    0.0000 N   0  0  0  0  0  0  0  0  0  0  0  0
    1.3042   -1.6167    0.0000 C   0  0  0  0  0  0  0  0  0  0  0  0
    1.3000    0.6333    0.0000 C   0  0  0  0  0  0  0  0  0  0  0  0
    5.2000   -1.6167    0.0000 C   0  0  0  0  0  0  0  0  0  0  0  0
    3.2500   -1.2500    0.0000 N   0  0  0  0  0  0  0  0  0  0  0  0
    0.6500   -1.2375    0.0000 C   0  0  0  0  0  0  0  0  0  0  0  0
    0.6500   -0.4875    0.0000 O   0  0  0  0  0  0  0  0  0  0  0  0
    3.9000   -2.3667    0.0000 O   0  0  0  0  0  0  0  0  0  0  0  0
    1.9542   -1.2500    0.0000 C   0  0  0  0  0  0  0  0  0  0  0  0
    1.9500    1.0000    0.0000 O   0  0  0  0  0  0  0  0  0  0  0  0
    1.3000   -0.1042    0.0000 C   0  0  0  0  0  0  0  0  0  0  0  0
    0.6500    1.0000    0.0000 O   0  0  0  0  0  0  0  0  0  0  0  0
    5.2000   -2.3667    0.0000 O   0  0  0  0  0  0  0  0  0  0  0  0
    4.5500   -0.5000    0.0000 C   0  0  0  0  0  0  0  0  0  0  0  0
    1.3042   -2.3667    0.0000 C   0  0  0  0  0  0  0  0  0  0  0  0
    5.8500   -1.2500    0.0000 C   0  0  0  0  0  0  0  0  0  0  0  0
    0.0000   -1.6167    0.0000 C   0  0  0  0  0  0  0  0  0  0  0  0
    0.6500    1.7500    0.0000 C   0  0  0  0  0  0  0  0  0  0  0  0
    5.2000   -0.1167    0.0000 C   0  0  0  0  0  0  0  0  0  0  0  0
    0.0000    2.1208    0.0000 C   0  0  0  0  0  0  0  0  0  0  0  0
    0.6500   -2.7500    0.0000 C   0  0  0  0  0  0  0  0  0  0  0  0
    5.8500   -0.5000    0.0000 C   0  0  0  0  0  0  0  0  0  0  0  0
    0.0000   -2.3667    0.0000 C   0  0  0  0  0  0  0  0  0  0  0  0
  2  1  1  0  0  0  0
  3  7  1  0  0  0  0
  4 11  1  0  0  0  0
  5 13  1  0  0  0  0
  6  1  1  0  0  0  0
  7  2  1  0  0  0  0
  8  4  1  0  0  0  0
  9  8  1  0  0  0  0
 10  2  2  0  0  0  0
 11  3  2  0  0  0  0
 12  5  2  0  0  0  0
 13  9  1  0  0  0  0
 14  5  1  0  0  0  0
 15  6  1  0  0  0  0
 16  1  2  0  0  0  0
 17  4  2  0  0  0  0
 18  6  2  0  0  0  0
 19  8  2  0  0  0  0
 20 14  1  0  0  0  0
 21 16  1  0  0  0  0
 22 20  1  0  0  0  0
 23 17  1  0  0  0  0
 24 21  2  0  0  0  0
 25 23  2  0  0  0  0
 18 24  1  0  0  0  0
 19 25  1  0  0  0  0
M  END
>  <ID> (5484910)
5484910

>  <Supplier> (5484910)
ChemBridge

>  <clogP> (5484910)
3.270000000000000e+000

>  <RB> (5484910)
6

>  <tPSA> (5484910)
9.722000000000000e+001

>  <Hacc> (5484910)
6

>  <Hdon> (5484910)
2

>  <LogSw> (5484910)
-3.909000000000000e+000

>  <Group> (5484910)
1

>  <Core> (5484910)
314

$$$$
5484911
  -ISIS-  03310818222D

 22 23  0  0  0  0  0  0  0  0999 V2000
    4.9917    2.0833    0.0000 C   0  0  3  0  0  0  0  0  0  0  0  0
    5.6417    1.7000    0.0000 C   0  0  3  0  0  0  0  0  0  0  0  0
    1.7417    3.2083    0.0000 N   0  3  0  0  0  0  0  0  0  0  0  0
    6.2917    2.0833    0.0000 C   0  0  3  0  0  0  0  0  0  0  0  0
    4.9917    2.8333    0.0000 O   0  0  0  0  0  0  0  0  0  0  0  0
    6.2917    2.8333    0.0000 C   0  0  3  0  0  0  0  0  0  0  0  0
    5.6417    3.2083    0.0000 C   0  0  3  0  0  0  0  0  0  0  0  0
    4.3417    1.7000    0.0000 N   0  0  0  0  0  0  0  0  0  0  0  0
    2.3917    2.8333    0.0000 C   0  0  0  0  0  0  0  0  0  0  0  0
    3.6917    2.0833    0.0000 C   0  0  0  0  0  0  0  0  0  0  0  0
    2.3917    2.0833    0.0000 C   0  0  0  0  0  0  0  0  0  0  0  0
    3.0417    1.7000    0.0000 C   0  0  0  0  0  0  0  0  0  0  0  0
    1.7417    3.9583    0.0000 O   0  5  0  0  0  0  0  0  0  0  0  0
    1.0917    2.8333    0.0000 O   0  0  0  0  0  0  0  0  0  0  0  0
    3.0417    3.2083    0.0000 C   0  0  0  0  0  0  0  0  0  0  0  0
    3.6917    2.8333    0.0000 C   0  0  0  0  0  0  0  0  0  0  0  0
    5.6417    0.9500    0.0000 O   0  0  0  0  0  0  0  0  0  0  0  0
    6.9417    1.7000    0.0000 O   0  0  0  0  0  0  0  0  0  0  0  0
    6.9417    3.2083    0.0000 O   0  0  0  0  0  0  0  0  0  0  0  0
    5.6417    3.9583    0.0000 C   0  0  0  0  0  0  0  0  0  0  0  0
    4.9917    4.3167    0.0000 O   0  0  0  0  0  0  0  0  0  0  0  0
    3.0417    0.9500    0.0000 C   0  0  0  0  0  0  0  0  0  0  0  0
  2  1  1  0  0  0  0
  3  9  1  0  0  0  0
  4  2  1  0  0  0  0
  5  1  1  0  0  0  0
  6  7  1  0  0  0  0
  7  5  1  0  0  0  0
  8  1  1  0  0  0  0
  9 15  1  0  0  0  0
 10  8  1  0  0  0  0
 11 12  1  0  0  0  0
 12 10  2  0  0  0  0
 13  3  1  0  0  0  0
 14  3  2  0  0  0  0
 15 16  2  0  0  0  0
 16 10  1  0  0  0  0
 17  2  1  0  0  0  0
 18  4  1  0  0  0  0
 19  6  1  0  0  0  0
 20  7  1  0  0  0  0
 21 20  1  0  0  0  0
 22 12  1  0  0  0  0
  4  6  1  0  0  0  0
 11  9  2  0  0  0  0
M  CHG  2   3   1  13  -1
M  END
>  <ID> (5484911)
5484911

>  <Supplier> (5484911)
ChemBridge

>  <clogP> (5484911)
6.300000000000000e-001

>  <RB> (5484911)
3

>  <tPSA> (5484911)
1.453200000000000e+002

>  <Hacc> (5484911)
7

>  <Hdon> (5484911)
5

>  <LogSw> (5484911)
-2.030000000000000e+000

>  <Group> (5484911)
1

$$$$
5484912
  -ISIS-  03310818222D

 19 19  0  0  0  0  0  0  0  0999 V2000
    0.5667   -0.4042    0.0000 C   0  0  0  0  0  0  0  0  0  0  0  0
    1.0500   -0.1292    0.0000 C   0  0  0  0  0  0  0  0  0  0  0  0
    0.0875   -0.1292    0.0000 C   0  0  0  0  0  0  0  0  0  0  0  0
    0.5667   -0.9500    0.0000 C   0  0  0  0  0  0  0  0  0  0  0  0
    1.0500    0.4500    0.0000 C   0  0  0  0  0  0  0  0  0  0  0  0
    0.5667   -1.5042    0.0000 N   0  0  0  0  0  0  0  0  0  0  0  0
    1.5292    0.7333    0.0000 C   0  0  0  0  0  0  0  0  0  0  0  0
    1.5292    1.2708    0.0000 C   0  0  0  0  0  0  0  0  0  0  0  0
    0.0875    0.4500    0.0000 S   0  0  0  0  0  0  0  0  0  0  0  0
    0.5667    0.7125    0.0000 C   0  0  0  0  0  0  0  0  0  0  0  0
   -0.3958   -0.3875    0.0000 N   0  0  0  0  0  0  0  0  0  0  0  0
    1.0500    1.5500    0.0000 C   0  0  0  0  0  0  0  0  0  0  0  0
    0.5667    1.2708    0.0000 C   0  0  0  0  0  0  0  0  0  0  0  0
    2.0292    0.4708    0.0000 O   0  0  0  0  0  0  0  0  0  0  0  0
    1.0500    2.1125    0.0000 O   0  0  0  0  0  0  0  0  0  0  0  0
    2.4875    0.7708    0.0000 C   0  0  0  0  0  0  0  0  0  0  0  0
    0.5667    2.3958    0.0000 C   0  0  0  0  0  0  0  0  0  0  0  0
    0.5667    2.9583    0.0000 C   0  0  0  0  0  0  0  0  0  0  0  0
    2.9667    0.5125    0.0000 C   0  0  0  0  0  0  0  0  0  0  0  0
  2  1  2  0  0  0  0
  3  1  1  0  0  0  0
  4  1  1  0  0  0  0
  5  2  1  0  0  0  0
  6  4  3  0  0  0  0
  7  5  1  0  0  0  0
  8  7  2  0  0  0  0
  9  3  2  0  0  0  0
 10  5  2  0  0  0  0
 11  3  1  0  0  0  0
 12 13  2  0  0  0  0
 13 10  1  0  0  0  0
 14  7  1  0  0  0  0
 15 12  1  0  0  0  0
 16 14  1  0  0  0  0
 17 15  1  0  0  0  0
 18 17  1  0  0  0  0
 19 16  1  0  0  0  0
  8 12  1  0  0  0  0
M  END
>  <ID> (5484912)
5484912

>  <Supplier> (5484912)
ChemBridge

>  <clogP> (5484912)
3.050000000000000e+000

>  <RB> (5484912)
2

>  <tPSA> (5484912)
6.827000000000000e+001

>  <Hacc> (5484912)
3

>  <Hdon> (5484912)
1

>  <LogSw> (5484912)
-4.086000000000000e+000

>  <Group> (5484912)
1

>  <Core> (5484912)
109

$$$$
7450068
  -ISIS-  03310818262D

 22 24  0  0  0  0  0  0  0  0999 V2000
    6.5417   -1.5292    0.0000 C   0  0  0  0  0  0  0  0  0  0  0  0
    5.9125   -0.9917    0.0000 O   0  0  0  0  0  0  0  0  0  0  0  0
    3.3167    0.3958    0.0000 N   0  0  3  0  0  0  0  0  0  0  0  0
    6.2292   -0.2292    0.0000 C   0  0  0  0  0  0  0  0  0  0  0  0
    6.4792   -2.3500    0.0000 C   0  0  0  0  0  0  0  0  0  0  0  0
    7.2417   -1.0917    0.0000 C   0  0  0  0  0  0  0  0  0  0  0  0
    4.9667    0.4458    0.0000 N   0  0  3  0  0  0  0  0  0  0  0  0
    7.0500   -0.2917    0.0000 C   0  0  0  0  0  0  0  0  0  0  0  0
    5.7917    0.4708    0.0000 C   0  0  0  0  0  0  0  0  0  0  0  0
    3.7042    1.1208    0.0000 C   0  0  0  0  0  0  0  0  0  0  0  0
    3.7542   -0.3042    0.0000 C   0  0  0  0  0  0  0  0  0  0  0  0
    2.4917    0.3708    0.0000 C   0  0  0  0  0  0  0  0  0  0  0  0
    7.1792   -2.8125    0.0000 O   0  0  0  0  0  0  0  0  0  0  0  0
    4.5292    1.1458    0.0000 C   0  0  0  0  0  0  0  0  0  0  0  0
    4.5750   -0.2792    0.0000 C   0  0  0  0  0  0  0  0  0  0  0  0
    5.7417   -2.7000    0.0000 O   0  0  0  0  0  0  0  0  0  0  0  0
    2.0625    1.0708    0.0000 C   0  0  0  0  0  0  0  0  0  0  0  0
    2.1125   -0.3542    0.0000 C   0  0  0  0  0  0  0  0  0  0  0  0
    5.6667   -3.5167    0.0000 C   0  0  0  0  0  0  0  0  0  0  0  0
    1.2375    1.0458    0.0000 C   0  0  0  0  0  0  0  0  0  0  0  0
    1.2792   -0.3875    0.0000 C   0  0  0  0  0  0  0  0  0  0  0  0
    0.8417    0.3125    0.0000 C   0  0  0  0  0  0  0  0  0  0  0  0
  2  1  1  0  0  0  0
  3 11  1  0  0  0  0
  4  2  1  0  0  0  0
  5  1  1  0  0  0  0
  6  1  2  0  0  0  0
  7  9  1  0  0  0  0
  8  6  1  0  0  0  0
  9  4  1  0  0  0  0
 10 14  1  0  0  0  0
 11 15  1  0  0  0  0
 12  3  1  0  0  0  0
 13  5  2  0  0  0  0
 14  7  1  0  0  0  0
 15  7  1  0  0  0  0
 16  5  1  0  0  0  0
 17 12  1  0  0  0  0
 18 12  2  0  0  0  0
 19 16  1  0  0  0  0
 20 17  2  0  0  0  0
 21 18  1  0  0  0  0
 22 21  2  0  0  0  0
  8  4  2  0  0  0  0
 10  3  1  0  0  0  0
 20 22  1  0  0  0  0
M  END
>  <ID> (7450068)
7450068

>  <Supplier> (7450068)
ChemBridge

>  <clogP> (7450068)
2.460000000000000e+000

>  <RB> (7450068)
4

>  <tPSA> (7450068)
4.592000000000000e+001

>  <Hacc> (7450068)
4

>  <Hdon> (7450068)
0

>  <LogSw> (7450068)
-2.450000000000000e+000

>  <Group> (7450068)
3

>  <Core> (7450068)
162

$$$$
7976022
  -ISIS-  03310818282D

 26 27  0  0  0  0  0  0  0  0999 V2000
    1.7042    1.4833    0.0000 S   0  0  3  0  0  0  0  0  0  0  0  0
    2.4542    1.4833    0.0000 C   0  0  0  0  0  0  0  0  0  0  0  0
    0.9625    1.3458    0.0000 O   0  0  0  0  0  0  0  0  0  0  0  0
    1.7667    0.7333    0.0000 O   0  0  0  0  0  0  0  0  0  0  0  0
    5.8292    2.1333    0.0000 C   0  0  0  0  0  0  0  0  0  0  0  0
    8.0792    2.1333    0.0000 C   0  0  0  0  0  0  0  0  0  0  0  0
    6.2042    2.7833    0.0000 N   0  0  0  0  0  0  0  0  0  0  0  0
    1.5042    2.2083    0.0000 N   0  0  0  0  0  0  0  0  0  0  0  0
    8.4542    1.4833    0.0000 C   0  0  0  0  0  0  0  0  0  0  0  0
    7.3292    2.1333    0.0000 C   0  0  0  0  0  0  0  0  0  0  0  0
    6.9542    2.7833    0.0000 C   0  0  0  0  0  0  0  0  0  0  0  0
    6.2042    1.4833    0.0000 O   0  0  0  0  0  0  0  0  0  0  0  0
    9.2042    1.4833    0.0000 O   0  0  0  0  0  0  0  0  0  0  0  0
    2.8292    0.8333    0.0000 C   0  0  0  0  0  0  0  0  0  0  0  0
    2.8292    2.1333    0.0000 C   0  0  0  0  0  0  0  0  0  0  0  0
    5.0792    2.1333    0.0000 C   0  0  0  0  0  0  0  0  0  0  0  0
    3.9542    1.4833    0.0000 C   0  0  0  0  0  0  0  0  0  0  0  0
    3.5792    0.8333    0.0000 C   0  0  0  0  0  0  0  0  0  0  0  0
    3.5792    2.1333    0.0000 C   0  0  0  0  0  0  0  0  0  0  0  0
    4.7042    1.4833    0.0000 C   0  0  0  0  0  0  0  0  0  0  0  0
    8.4542    2.7833    0.0000 C   0  0  0  0  0  0  0  0  0  0  0  0
    8.0792    3.4250    0.0000 C   0  0  0  0  0  0  0  0  0  0  0  0
    7.3292    3.4250    0.0000 C   0  0  0  0  0  0  0  0  0  0  0  0
    8.0792    0.8333    0.0000 C   0  0  0  0  0  0  0  0  0  0  0  0
    0.7792    2.3958    0.0000 C   0  0  0  0  0  0  0  0  0  0  0  0
    0.5917    3.1208    0.0000 C   0  0  0  0  0  0  0  0  0  0  0  0
  2  1  1  0  0  0  0
  3  1  2  0  0  0  0
  4  1  2  0  0  0  0
  5 16  1  0  0  0  0
  6 10  1  0  0  0  0
  7  5  1  0  0  0  0
  8  1  1  0  0  0  0
  9  6  1  0  0  0  0
 10 11  2  0  0  0  0
 11  7  1  0  0  0  0
 12  5  2  0  0  0  0
 13  9  2  0  0  0  0
 14  2  2  0  0  0  0
 15  2  1  0  0  0  0
 16 20  1  0  0  0  0
 17 19  1  0  0  0  0
 18 14  1  0  0  0  0
 19 15  2  0  0  0  0
 20 17  1  0  0  0  0
 21 22  1  0  0  0  0
 22 23  2  0  0  0  0
 23 11  1  0  0  0  0
 24  9  1  0  0  0  0
 25  8  1  0  0  0  0
 26 25  1  0  0  0  0
 18 17  2  0  0  0  0
 21  6  2  0  0  0  0
M  END
>  <ID> (7976022)
7976022

>  <Supplier> (7976022)
ChemBridge

>  <clogP> (7976022)
2.474000000000000e+000

>  <RB> (7976022)
6

>  <tPSA> (7976022)
9.233999999999998e+001

>  <Hacc> (7976022)
5

>  <Hdon> (7976022)
2

>  <LogSw> (7976022)
-4.043000000000000e+000

>  <Group> (7976022)
2

>  <Core> (7976022)
484

$$$$
4010684
  -ISIS-  03310818212D

 12 12  0  0  0  0  0  0  0  0999 V2000
    5.0250   -3.0750    0.0000 N   0  0  3  0  0  0  0  0  0  0  0  0
    4.2792   -2.7250    0.0000 C   0  0  0  0  0  0  0  0  0  0  0  0
    5.6667   -2.5417    0.0000 C   0  0  0  0  0  0  0  0  0  0  0  0
    6.5000   -2.5500    0.0000 C   0  0  0  0  0  0  0  0  0  0  0  0
    4.2625   -1.8917    0.0000 O   0  0  0  0  0  0  0  0  0  0  0  0
    6.9167   -1.8375    0.0000 O   0  0  0  0  0  0  0  0  0  0  0  0
    6.9167   -3.2625    0.0000 O   0  0  0  0  0  0  0  0  0  0  0  0
    5.2125   -3.8667    0.0000 C   0  0  0  0  0  0  0  0  0  0  0  0
    3.5417   -3.0917    0.0000 C   0  0  0  0  0  0  0  0  0  0  0  0
    4.7042   -4.5167    0.0000 C   0  0  0  0  0  0  0  0  0  0  0  0
    3.3625   -3.8917    0.0000 C   0  0  0  0  0  0  0  0  0  0  0  0
    3.8792   -4.5292    0.0000 C   0  0  0  0  0  0  0  0  0  0  0  0
  2  1  1  0  0  0  0
  3  1  1  0  0  0  0
  4  3  1  0  0  0  0
  5  2  2  0  0  0  0
  6  4  2  0  0  0  0
  7  4  1  0  0  0  0
  8  1  1  0  0  0  0
  9  2  1  0  0  0  0
 10  8  1  0  0  0  0
 11  9  1  0  0  0  0
 12 10  1  0  0  0  0
 11 12  1  0  0  0  0
M  END
>  <ID> (4010684)
4010684

>  <Supplier> (4010684)
ChemBridge

>  <clogP> (4010684)
7.600000000000000e-001

>  <RB> (4010684)
2

>  <tPSA> (4010684)
5.761000000000000e+001

>  <Hacc> (4010684)
3

>  <Hdon> (4010684)
1

>  <LogSw> (4010684)
-9.200000000000002e-001

>  <Group> (4010684)
3

$$$$
4010685
  -ISIS-  03310818212D

 13 13  0  0  0  0  0  0  0  0999 V2000
    4.5542   -2.8917    0.0000 N   0  0  3  0  0  0  0  0  0  0  0  0
    3.8042   -2.5417    0.0000 C   0  0  0  0  0  0  0  0  0  0  0  0
    6.0000   -2.8917    0.0000 C   0  0  0  0  0  0  0  0  0  0  0  0
    6.7167   -2.4792    0.0000 C   0  0  0  0  0  0  0  0  0  0  0  0
    5.2792   -2.4667    0.0000 C   0  0  0  0  0  0  0  0  0  0  0  0
    3.7917   -1.7042    0.0000 O   0  0  0  0  0  0  0  0  0  0  0  0
    6.7167   -1.6417    0.0000 O   0  0  0  0  0  0  0  0  0  0  0  0
    7.4292   -2.8917    0.0000 O   0  0  0  0  0  0  0  0  0  0  0  0
    4.7542   -3.6792    0.0000 C   0  0  0  0  0  0  0  0  0  0  0  0
    3.0667   -2.9167    0.0000 C   0  0  0  0  0  0  0  0  0  0  0  0
    4.2542   -4.3417    0.0000 C   0  0  0  0  0  0  0  0  0  0  0  0
    2.9042   -3.7250    0.0000 C   0  0  0  0  0  0  0  0  0  0  0  0
    3.4292   -4.3542    0.0000 C   0  0  0  0  0  0  0  0  0  0  0  0
  2  1  1  0  0  0  0
  3  5  1  0  0  0  0
  4  3  1  0  0  0  0
  5  1  1  0  0  0  0
  6  2  2  0  0  0  0
  7  4  2  0  0  0  0
  8  4  1  0  0  0  0
  9  1  1  0  0  0  0
 10  2  1  0  0  0  0
 11  9  1  0  0  0  0
 12 10  1  0  0  0  0
 13 11  1  0  0  0  0
 13 12  1  0  0  0  0
M  END
>  <ID> (4010685)
4010685

>  <Supplier> (4010685)
ChemBridge

>  <clogP> (4010685)
7.400000000000000e-001

>  <RB> (4010685)
3

>  <tPSA> (4010685)
5.761000000000000e+001

>  <Hacc> (4010685)
3

>  <Hdon> (4010685)
1

>  <LogSw> (4010685)
-1.083000000000000e+000

>  <Group> (4010685)
3

$$$$
5428119
  -ISIS-  03310818222D

 22 24  0  0  0  0  0  0  0  0999 V2000
   -1.9083    2.1333    0.0000 N   0  0  3  0  0  0  0  0  0  0  0  0
   -3.2625    2.1333    0.0000 C   0  0  0  0  0  0  0  0  0  0  0  0
   -2.5833    1.7500    0.0000 C   0  0  0  0  0  0  0  0  0  0  0  0
   -3.2625    2.9458    0.0000 C   0  0  0  0  0  0  0  0  0  0  0  0
   -1.2333    1.7500    0.0000 C   0  0  0  0  0  0  0  0  0  0  0  0
   -1.9083    2.9458    0.0000 C   0  0  0  0  0  0  0  0  0  0  0  0
   -2.5833    3.3125    0.0000 C   0  0  0  0  0  0  0  0  0  0  0  0
   -0.5958    2.2125    0.0000 C   0  0  0  0  0  0  0  0  0  0  0  0
    0.7667    3.0000    0.0000 C   0  0  0  0  0  0  0  0  0  0  0  0
   -0.5958    2.9958    0.0000 C   0  0  0  0  0  0  0  0  0  0  0  0
    0.0875    1.8125    0.0000 C   0  0  0  0  0  0  0  0  0  0  0  0
    0.7667    2.2125    0.0000 C   0  0  0  0  0  0  0  0  0  0  0  0
    0.0875    3.3958    0.0000 C   0  0  0  0  0  0  0  0  0  0  0  0
    1.4500    3.4000    0.0000 O   0  0  0  0  0  0  0  0  0  0  0  0
   -3.9333    1.7500    0.0000 C   0  0  0  0  0  0  0  0  0  0  0  0
   -3.9333    3.3125    0.0000 C   0  0  0  0  0  0  0  0  0  0  0  0
    2.1292    3.0000    0.0000 C   0  0  0  0  0  0  0  0  0  0  0  0
    2.8042    3.4000    0.0000 C   0  0  0  0  0  0  0  0  0  0  0  0
    3.4875    3.0000    0.0000 C   0  0  0  0  0  0  0  0  0  0  0  0
   -4.6000    2.1458    0.0000 C   0  0  0  0  0  0  0  0  0  0  0  0
    4.1667    3.4000    0.0000 C   0  0  0  0  0  0  0  0  0  0  0  0
   -4.6000    2.9208    0.0000 C   0  0  0  0  0  0  0  0  0  0  0  0
  2  3  1  0  0  0  0
  3  1  1  0  0  0  0
  4  7  1  0  0  0  0
  5  1  1  0  0  0  0
  6  1  1  0  0  0  0
  7  6  1  0  0  0  0
  8  5  1  0  0  0  0
  9 12  1  0  0  0  0
 10  8  2  0  0  0  0
 11  8  1  0  0  0  0
 12 11  2  0  0  0  0
 13 10  1  0  0  0  0
 14  9  1  0  0  0  0
 15  2  1  0  0  0  0
 16  4  1  0  0  0  0
 17 14  1  0  0  0  0
 18 17  1  0  0  0  0
 19 18  1  0  0  0  0
 20 15  2  0  0  0  0
 21 19  1  0  0  0  0
 22 16  2  0  0  0  0
  2  4  2  0  0  0  0
 13  9  2  0  0  0  0
 20 22  1  0  0  0  0
M  END
>  <ID> (5428119)
5428119

>  <Supplier> (5428119)
ChemBridge

>  <clogP> (5428119)
5.140000000000000e+000

>  <RB> (5428119)
4

>  <tPSA> (5428119)
1.247000000000000e+001

>  <Hacc> (5428119)
2

>  <Hdon> (5428119)
0

>  <LogSw> (5428119)
-4.736000000000002e+000

>  <Group> (5428119)
3

$$$$
5630106
  -ISIS-  03310818222D

 25 27  0  0  0  0  0  0  0  0999 V2000
    0.5042    1.2458    0.0000 C   0  0  0  0  0  0  0  0  0  0  0  0
   -1.0000   -1.4167    0.0000 C   0  0  0  0  0  0  0  0  0  0  0  0
    0.0792    2.1500    0.0000 C   0  0  0  0  0  0  0  0  0  0  0  0
   -1.5333   -2.3167    0.0000 C   0  0  0  0  0  0  0  0  0  0  0  0
    0.0000    0.3625    0.0000 N   0  0  3  0  0  0  0  0  0  0  0  0
    1.5500    1.3833    0.0000 N   0  0  0  0  0  0  0  0  0  0  0  0
   -1.5333   -0.5167    0.0000 N   0  0  0  0  0  0  0  0  0  0  0  0
    4.6042   -0.5500    0.0000 N   0  3  0  0  0  0  0  0  0  0  0  0
   -1.0208    0.3625    0.0000 N   0  0  0  0  0  0  0  0  0  0  0  0
    0.0000   -1.6500    0.0000 N   0  0  0  0  0  0  0  0  0  0  0  0
    0.7792    2.8833    0.0000 N   0  0  0  0  0  0  0  0  0  0  0  0
   -0.8333   -3.0667    0.0000 N   0  0  0  0  0  0  0  0  0  0  0  0
    1.7167    2.3958    0.0000 O   0  0  0  0  0  0  0  0  0  0  0  0
    0.1000   -2.6500    0.0000 O   0  0  0  0  0  0  0  0  0  0  0  0
    3.6000   -0.5167    0.0000 C   0  0  0  0  0  0  0  0  0  0  0  0
    5.2000   -1.4000    0.0000 O   0  5  0  0  0  0  0  0  0  0  0  0
    0.5042   -0.5167    0.0000 C   0  0  0  0  0  0  0  0  0  0  0  0
    5.1792    0.2958    0.0000 O   0  0  0  0  0  0  0  0  0  0  0  0
   -0.9500    2.2458    0.0000 N   0  0  0  0  0  0  0  0  0  0  0  0
   -2.5625   -2.4500    0.0000 N   0  0  0  0  0  0  0  0  0  0  0  0
    3.1000    0.3708    0.0000 C   0  0  0  0  0  0  0  0  0  0  0  0
    3.0792   -1.4000    0.0000 C   0  0  0  0  0  0  0  0  0  0  0  0
    1.5500   -0.5167    0.0000 C   0  0  0  0  0  0  0  0  0  0  0  0
    2.0500   -1.4000    0.0000 C   0  0  0  0  0  0  0  0  0  0  0  0
    2.0667    0.3708    0.0000 C   0  0  0  0  0  0  0  0  0  0  0  0
  2  7  1  0  0  0  0
  3  1  1  0  0  0  0
  4  2  1  0  0  0  0
  5  1  1  0  0  0  0
  6  1  2  0  0  0  0
  7  9  2  0  0  0  0
  8 15  1  0  0  0  0
  9  5  1  0  0  0  0
 10  2  2  0  0  0  0
 11  3  2  0  0  0  0
 12  4  2  0  0  0  0
 13  6  1  0  0  0  0
 14 10  1  0  0  0  0
 15 21  1  0  0  0  0
 16  8  1  0  0  0  0
 17  5  1  0  0  0  0
 18  8  2  0  0  0  0
 19  3  1  0  0  0  0
 20  4  1  0  0  0  0
 21 25  2  0  0  0  0
 22 24  1  0  0  0  0
 23 17  1  0  0  0  0
 24 23  2  0  0  0  0
 25 23  1  0  0  0  0
 11 13  1  0  0  0  0
 15 22  2  0  0  0  0
 14 12  1  0  0  0  0
M  CHG  2   8   1  16  -1
M  END
>  <ID> (5630106)
5630106

>  <Supplier> (5630106)
ChemBridge

>  <clogP> (5630106)
1.610000000000000e+000

>  <RB> (5630106)
5

>  <tPSA> (5630106)
2.009800000000000e+002

>  <Hacc> (5630106)
10

>  <Hdon> (5630106)
2

>  <LogSw> (5630106)
-3.490000000000000e+000

>  <Group> (5630106)
1

$$$$
5630102
  -ISIS-  03310818222D

 28 30  0  0  0  0  0  0  0  0999 V2000
    4.5875   -1.3875    0.0000 C   0  0  0  0  0  0  0  0  0  0  0  0
    3.5042   -1.7542    0.0000 N   0  0  3  0  0  0  0  0  0  0  0  0
    4.1875   -1.9667    0.0000 C   0  0  0  0  0  0  0  0  0  0  0  0
    3.5000   -1.0500    0.0000 N   0  0  0  0  0  0  0  0  0  0  0  0
    4.1667   -0.8292    0.0000 C   0  0  0  0  0  0  0  0  0  0  0  0
    5.3000   -1.3792    0.0000 C   0  0  0  0  0  0  0  0  0  0  0  0
    5.6667   -1.9792    0.0000 C   0  0  0  0  0  0  0  0  0  0  0  0
    6.3667   -1.9667    0.0000 C   0  0  0  0  0  0  0  0  0  0  0  0
    6.7375   -2.5792    0.0000 C   0  0  0  0  0  0  0  0  0  0  0  0
    2.9375   -2.1875    0.0000 C   0  0  0  0  0  0  0  0  0  0  0  0
    1.2375   -3.4542    0.0000 C   0  0  0  0  0  0  0  0  0  0  0  0
    6.4000   -3.2000    0.0000 C   0  0  0  0  0  0  0  0  0  0  0  0
    4.4167   -2.6375    0.0000 O   0  0  0  0  0  0  0  0  0  0  0  0
    5.3167   -2.6000    0.0000 C   0  0  0  0  0  0  0  0  0  0  0  0
    4.3792   -0.1542    0.0000 O   0  0  0  0  0  0  0  0  0  0  0  0
    1.8042   -3.0292    0.0000 C   0  0  0  0  0  0  0  0  0  0  0  0
    5.6875   -3.2042    0.0000 C   0  0  0  0  0  0  0  0  0  0  0  0
    1.3167   -4.1542    0.0000 O   0  0  0  0  0  0  0  0  0  0  0  0
    3.0167   -2.8875    0.0000 C   0  0  0  0  0  0  0  0  0  0  0  0
    2.2875   -1.9042    0.0000 C   0  0  0  0  0  0  0  0  0  0  0  0
    1.7167   -2.3292    0.0000 C   0  0  0  0  0  0  0  0  0  0  0  0
    2.4542   -3.3042    0.0000 C   0  0  0  0  0  0  0  0  0  0  0  0
    7.4500   -2.5542    0.0000 Br  0  0  0  0  0  0  0  0  0  0  0  0
    6.7167   -1.3500    0.0000 O   0  0  0  0  0  0  0  0  0  0  0  0
    0.5875   -3.1667    0.0000 O   0  0  0  0  0  0  0  0  0  0  0  0
    5.3500   -3.8292    0.0000 Cl  0  0  0  0  0  0  0  0  0  0  0  0
    0.5000   -2.4667    0.0000 C   0  0  0  0  0  0  0  0  0  0  0  0
   -0.1458   -2.1875    0.0000 C   0  0  0  0  0  0  0  0  0  0  0  0
  2  3  1  0  0  0  0
  3  1  1  0  0  0  0
  4  5  1  0  0  0  0
  5  1  1  0  0  0  0
  6  1  2  0  0  0  0
  7  6  1  0  0  0  0
  8  7  2  0  0  0  0
  9  8  1  0  0  0  0
 10  2  1  0  0  0  0
 11 16  1  0  0  0  0
 12 17  1  0  0  0  0
 13  3  2  0  0  0  0
 14  7  1  0  0  0  0
 15  5  2  0  0  0  0
 16 21  1  0  0  0  0
 17 14  2  0  0  0  0
 18 11  2  0  0  0  0
 19 10  2  0  0  0  0
 20 10  1  0  0  0  0
 21 20  2  0  0  0  0
 22 19  1  0  0  0  0
 23  9  1  0  0  0  0
 24  8  1  0  0  0  0
 25 11  1  0  0  0  0
 26 17  1  0  0  0  0
 27 25  1  0  0  0  0
 28 27  1  0  0  0  0
  4  2  1  0  0  0  0
 12  9  2  0  0  0  0
 16 22  2  0  0  0  0
M  END
>  <ID> (5630102)
5630102

>  <Supplier> (5630102)
ChemBridge

>  <clogP> (5630102)
5.530000000000000e+000

>  <RB> (5630102)
3

>  <tPSA> (5630102)
9.594000000000000e+001

>  <Hacc> (5630102)
5

>  <Hdon> (5630102)
2

>  <LogSw> (5630102)
-6.737000000000000e+000

>  <Group> (5630102)
3

>  <Core> (5630102)
048

$$$$
7947050
  -ISIS-  03310818272D

 21 22  0  0  0  0  0  0  0  0999 V2000
    1.3167    1.5208    0.0000 S   0  0  3  0  0  0  0  0  0  0  0  0
    6.5667    2.8208    0.0000 C   0  0  0  0  0  0  0  0  0  0  0  0
    5.8167    2.8208    0.0000 C   0  0  0  0  0  0  0  0  0  0  0  0
    7.0042    2.2125    0.0000 C   0  0  0  0  0  0  0  0  0  0  0  0
    2.0667    1.5208    0.0000 C   0  0  0  0  0  0  0  0  0  0  0  0
    7.0042    3.4250    0.0000 C   0  0  0  0  0  0  0  0  0  0  0  0
    1.1167    2.2458    0.0000 O   0  0  0  0  0  0  0  0  0  0  0  0
    0.5792    1.3875    0.0000 O   0  0  0  0  0  0  0  0  0  0  0  0
    7.7167    2.4458    0.0000 O   0  0  0  0  0  0  0  0  0  0  0  0
    7.7167    3.1958    0.0000 C   0  0  0  0  0  0  0  0  0  0  0  0
    1.3792    0.7708    0.0000 N   0  0  0  0  0  0  0  0  0  0  0  0
    5.4417    3.4708    0.0000 O   0  0  0  0  0  0  0  0  0  0  0  0
    5.4417    2.1708    0.0000 N   0  0  0  0  0  0  0  0  0  0  0  0
    2.4417    0.8708    0.0000 C   0  0  0  0  0  0  0  0  0  0  0  0
    2.4417    2.1708    0.0000 C   0  0  0  0  0  0  0  0  0  0  0  0
    3.1917    0.8708    0.0000 C   0  0  0  0  0  0  0  0  0  0  0  0
    3.1917    2.1708    0.0000 C   0  0  0  0  0  0  0  0  0  0  0  0
    3.5667    1.5208    0.0000 C   0  0  0  0  0  0  0  0  0  0  0  0
    4.6917    2.1708    0.0000 C   0  0  0  0  0  0  0  0  0  0  0  0
    6.7750    1.4958    0.0000 C   0  0  0  0  0  0  0  0  0  0  0  0
    4.3167    1.5208    0.0000 C   0  0  0  0  0  0  0  0  0  0  0  0
  2  3  1  0  0  0  0
  3 13  1  0  0  0  0
  4  2  2  0  0  0  0
  5  1  1  0  0  0  0
  6  2  1  0  0  0  0
  7  1  2  0  0  0  0
  8  1  2  0  0  0  0
  9  4  1  0  0  0  0
 10  6  2  0  0  0  0
 11  1  1  0  0  0  0
 12  3  2  0  0  0  0
 13 19  1  0  0  0  0
 14  5  1  0  0  0  0
 15  5  2  0  0  0  0
 16 14  2  0  0  0  0
 17 15  1  0  0  0  0
 18 17  2  0  0  0  0
 19 21  1  0  0  0  0
 20  4  1  0  0  0  0
 21 18  1  0  0  0  0
 16 18  1  0  0  0  0
  9 10  1  0  0  0  0
M  END
>  <ID> (7947050)
7947050

>  <Supplier> (7947050)
ChemBridge

>  <clogP> (7947050)
4.560000000000000e-001

>  <RB> (7947050)
5

>  <tPSA> (7947050)
1.024000000000000e+002

>  <Hacc> (7947050)
5

>  <Hdon> (7947050)
2

>  <LogSw> (7947050)
-1.838000000000000e+000

>  <Group> (7947050)
3

>  <Core> (7947050)
531

$$$$
9017335
  -ISIS-  03310818282D

 16 15  0  0  0  0  0  0  0  0999 V2000
    6.6667   -3.1542    0.0000 N   0  0  0  0  0  0  0  0  0  0  0  0
    7.3875   -3.5750    0.0000 C   0  0  3  0  0  0  0  0  0  0  0  0
    5.9417   -3.5750    0.0000 C   0  0  0  0  0  0  0  0  0  0  0  0
    5.2292   -3.1542    0.0000 C   0  0  0  0  0  0  0  0  0  0  0  0
    3.7917   -2.3292    0.0000 C   0  0  0  0  0  0  0  0  0  0  0  0
    2.1917   -4.5917    0.0000 Cl  0  0  0  0  0  0  0  0  0  0  0  0
    4.5042   -3.5750    0.0000 C   0  0  0  0  0  0  0  0  0  0  0  0
    5.2292   -2.3292    0.0000 C   0  0  0  0  0  0  0  0  0  0  0  0
    4.5042   -1.9125    0.0000 C   0  0  0  0  0  0  0  0  0  0  0  0
    3.7917   -3.1542    0.0000 C   0  0  0  0  0  0  0  0  0  0  0  0
    3.0667   -1.9125    0.0000 O   0  0  0  0  0  0  0  0  0  0  0  0
    8.7667   -3.2000    0.0000 O   0  0  0  0  0  0  0  0  0  0  0  0
    7.9667   -2.9792    0.0000 C   0  0  0  0  0  0  0  0  0  0  0  0
    6.9125   -4.2500    0.0000 C   0  0  0  0  0  0  0  0  0  0  0  0
    8.0167   -4.1042    0.0000 C   0  0  0  0  0  0  0  0  0  0  0  0
    2.3542   -2.3292    0.0000 C   0  0  0  0  0  0  0  0  0  0  0  0
  2  1  1  0  0  0  0
  3  1  1  0  0  0  0
  4  3  1  0  0  0  0
  5 10  1  0  0  0  0
  7  4  1  0  0  0  0
  8  4  2  0  0  0  0
  9  8  1  0  0  0  0
 10  7  2  0  0  0  0
 11  5  1  0  0  0  0
 12 13  1  0  0  0  0
 13  2  1  0  0  0  0
 14  2  1  0  0  0  0
 15  2  1  0  0  0  0
 16 11  1  0  0  0  0
  9  5  2  0  0  0  0
M  END
>  <ID> (9017335)
9017335

>  <Supplier> (9017335)
ChemBridge

>  <clogP> (9017335)
5.700000000000001e-001

>  <RB> (9017335)
4

>  <tPSA> (9017335)
4.149000000000000e+001

>  <Hacc> (9017335)
3

>  <Hdon> (9017335)
2

>  <LogSw> (9017335)
-2.060000000000000e-001

>  <Group> (9017335)
2

$$$$
7513386
  -ISIS-  03310818262D

 14 14  0  0  0  0  0  0  0  0999 V2000
    6.0417   -2.4000    0.0000 N   0  0  3  0  0  0  0  0  0  0  0  0
    6.0417   -3.2292    0.0000 C   0  0  0  0  0  0  0  0  0  0  0  0
    5.3250   -1.9917    0.0000 C   0  0  0  0  0  0  0  0  0  0  0  0
    5.3250   -3.6375    0.0000 N   0  0  0  0  0  0  0  0  0  0  0  0
    4.6042   -2.4000    0.0000 C   0  0  0  0  0  0  0  0  0  0  0  0
    4.6042   -3.2292    0.0000 C   0  0  0  0  0  0  0  0  0  0  0  0
    6.7750   -3.6375    0.0000 S   0  5  0  0  0  0  0  0  0  0  0  0
    5.3250   -1.1625    0.0000 O   0  0  0  0  0  0  0  0  0  0  0  0
    6.7750   -1.9792    0.0000 C   0  0  0  0  0  0  0  0  0  0  0  0
    3.9042   -1.9917    0.0000 C   0  0  0  0  0  0  0  0  0  0  0  0
    7.8000   -3.3042    0.0000 K   0  3  0  0  0  0  0  0  0  0  0  0
    3.9042   -3.6375    0.0000 C   0  0  0  0  0  0  0  0  0  0  0  0
    3.1875   -2.4000    0.0000 C   0  0  0  0  0  0  0  0  0  0  0  0
    3.1875   -3.2292    0.0000 C   0  0  0  0  0  0  0  0  0  0  0  0
  2  1  1  0  0  0  0
  3  1  1  0  0  0  0
  4  2  2  0  0  0  0
  5  3  1  0  0  0  0
  6  5  2  0  0  0  0
  7  2  1  0  0  0  0
  8  3  2  0  0  0  0
  9  1  1  0  0  0  0
 10  5  1  0  0  0  0
 12  6  1  0  0  0  0
 13 10  2  0  0  0  0
 14 13  1  0  0  0  0
  4  6  1  0  0  0  0
 14 12  2  0  0  0  0
M  CHG  2   7  -1  11   1
M  END
>  <ID> (7513386)
7513386

>  <Supplier> (7513386)
ChemBridge

>  <clogP> (7513386)
3.030000000000000e-001

>  <RB> (7513386)
2

>  <tPSA> (7513386)
3.489000000000000e+001

>  <Hacc> (7513386)
2

>  <Hdon> (7513386)
0

>  <LogSw> (7513386)
-2.172000000000000e+000

>  <Group> (7513386)
2

$$$$
9017330
  -ISIS-  03310818282D

 22 24  0  0  0  0  0  0  0  0999 V2000
    4.1625    2.3750    0.0000 C   0  0  0  0  0  0  0  0  0  0  0  0
    4.5375    1.7250    0.0000 C   0  0  0  0  0  0  0  0  0  0  0  0
    3.4292    2.2208    0.0000 N   0  0  0  0  0  0  0  0  0  0  0  0
    4.5375    3.0250    0.0000 N   0  0  3  0  0  0  0  0  0  0  0  0
    5.6625    2.3750    0.0000 N   0  0  3  0  0  0  0  0  0  0  0  0
    5.2875    3.0250    0.0000 C   0  0  0  0  0  0  0  0  0  0  0  0
    5.2875    1.7250    0.0000 C   0  0  0  0  0  0  0  0  0  0  0  0
    3.3500    1.4750    0.0000 C   0  0  0  0  0  0  0  0  0  0  0  0
    4.0375    1.1708    0.0000 N   0  0  3  0  0  0  0  0  0  0  0  0
    2.7042    1.1000    0.0000 O   0  0  0  0  0  0  0  0  0  0  0  0
    5.6625    3.6750    0.0000 O   0  0  0  0  0  0  0  0  0  0  0  0
    5.6625    1.0750    0.0000 O   0  0  0  0  0  0  0  0  0  0  0  0
    2.0542    1.4750    0.0000 C   0  0  0  0  0  0  0  0  0  0  0  0
    2.0542    2.2250    0.0000 C   0  0  0  0  0  0  0  0  0  0  0  0
    4.1625    3.6750    0.0000 C   0  0  0  0  0  0  0  0  0  0  0  0
    6.4125    2.3750    0.0000 C   0  0  0  0  0  0  0  0  0  0  0  0
    4.1917    0.4333    0.0000 C   0  0  0  0  0  0  0  0  0  0  0  0
    1.4042    2.6000    0.0000 C   0  0  0  0  0  0  0  0  0  0  0  0
    1.4042    3.3583    0.0000 O   0  0  0  0  0  0  0  0  0  0  0  0
    0.7542    1.4750    0.0000 C   0  0  0  0  0  0  0  0  0  0  0  0
    1.4042    1.1000    0.0000 C   0  0  0  0  0  0  0  0  0  0  0  0
    0.7542    2.2250    0.0000 C   0  0  0  0  0  0  0  0  0  0  0  0
  2  1  2  0  0  0  0
  3  1  1  0  0  0  0
  4  1  1  0  0  0  0
  5  6  1  0  0  0  0
  6  4  1  0  0  0  0
  7  2  1  0  0  0  0
  8  3  2  0  0  0  0
  9  2  1  0  0  0  0
 10  8  1  0  0  0  0
 11  6  2  0  0  0  0
 12  7  2  0  0  0  0
 13 10  1  0  0  0  0
 14 13  1  0  0  0  0
 15  4  1  0  0  0  0
 16  5  1  0  0  0  0
 17  9  1  0  0  0  0
 18 14  2  0  0  0  0
 19 18  1  0  0  0  0
 20 21  1  0  0  0  0
 21 13  2  0  0  0  0
 22 20  2  0  0  0  0
  9  8  1  0  0  0  0
  7  5  1  0  0  0  0
 22 18  1  0  0  0  0
M  END
>  <ID> (9017330)
9017330

>  <Supplier> (9017330)
ChemBridge

>  <clogP> (9017330)
1.391000000000000e+000

>  <RB> (9017330)
2

>  <tPSA> (9017330)
9.128000000000000e+001

>  <Hacc> (9017330)
5

>  <Hdon> (9017330)
1

>  <LogSw> (9017330)
-2.013000000000000e+000

>  <Group> (9017330)
3

>  <Core> (9017330)
251

$$$$
9017331
  -ISIS-  03310818282D

 28 30  0  0  0  0  0  0  0  0999 V2000
    5.2292    3.3833    0.0000 S   0  0  3  0  0  0  0  0  0  0  0  0
    5.9792    3.3833    0.0000 N   0  0  3  0  0  0  0  0  0  0  0  0
    2.8667    2.0708    0.0000 C   0  0  0  0  0  0  0  0  0  0  0  0
    5.0375    2.6583    0.0000 C   0  0  0  0  0  0  0  0  0  0  0  0
    2.1417    1.8750    0.0000 C   0  0  0  0  0  0  0  0  0  0  0  0
    3.3917    1.5458    0.0000 N   0  0  0  0  0  0  0  0  0  0  0  0
    4.1167    1.7333    0.0000 C   0  0  0  0  0  0  0  0  0  0  0  0
    4.3125    2.4583    0.0000 C   0  0  0  0  0  0  0  0  0  0  0  0
    5.3000    4.1167    0.0000 O   0  0  0  0  0  0  0  0  0  0  0  0
    4.4917    3.5083    0.0000 O   0  0  0  0  0  0  0  0  0  0  0  0
    7.4792    3.3833    0.0000 N   0  0  3  0  0  0  0  0  0  0  0  0
    6.3542    4.0250    0.0000 C   0  0  0  0  0  0  0  0  0  0  0  0
    6.3542    2.7333    0.0000 C   0  0  0  0  0  0  0  0  0  0  0  0
    1.6125    2.4083    0.0000 C   0  0  0  0  0  0  0  0  0  0  0  0
    4.6500    1.2083    0.0000 C   0  0  0  0  0  0  0  0  0  0  0  0
    3.0542    2.7958    0.0000 O   0  0  0  0  0  0  0  0  0  0  0  0
    5.5667    2.1250    0.0000 C   0  0  0  0  0  0  0  0  0  0  0  0
    5.3750    1.4000    0.0000 C   0  0  0  0  0  0  0  0  0  0  0  0
    7.1042    2.7333    0.0000 C   0  0  0  0  0  0  0  0  0  0  0  0
    7.1042    4.0250    0.0000 C   0  0  0  0  0  0  0  0  0  0  0  0
    1.8042    3.1333    0.0000 F   0  0  0  0  0  0  0  0  0  0  0  0
    1.9417    1.1583    0.0000 C   0  0  0  0  0  0  0  0  0  0  0  0
    4.4542    0.4833    0.0000 O   0  0  0  0  0  0  0  0  0  0  0  0
    8.2292    3.3833    0.0000 C   0  0  0  0  0  0  0  0  0  0  0  0
    0.8875    2.2125    0.0000 C   0  0  0  0  0  0  0  0  0  0  0  0
    4.9875   -0.0500    0.0000 C   0  0  0  0  0  0  0  0  0  0  0  0
    1.2167    0.9583    0.0000 C   0  0  0  0  0  0  0  0  0  0  0  0
    0.6917    1.4875    0.0000 C   0  0  0  0  0  0  0  0  0  0  0  0
  2  1  1  0  0  0  0
  3  6  1  0  0  0  0
  4  1  1  0  0  0  0
  5  3  1  0  0  0  0
  6  7  1  0  0  0  0
  7  8  1  0  0  0  0
  8  4  2  0  0  0  0
  9  1  2  0  0  0  0
 10  1  2  0  0  0  0
 11 19  1  0  0  0  0
 12  2  1  0  0  0  0
 13  2  1  0  0  0  0
 14  5  1  0  0  0  0
 15 18  1  0  0  0  0
 16  3  2  0  0  0  0
 17  4  1  0  0  0  0
 18 17  2  0  0  0  0
 19 13  1  0  0  0  0
 20 12  1  0  0  0  0
 21 14  1  0  0  0  0
 22  5  2  0  0  0  0
 23 15  1  0  0  0  0
 24 11  1  0  0  0  0
 25 14  2  0  0  0  0
 26 23  1  0  0  0  0
 27 22  1  0  0  0  0
 28 27  2  0  0  0  0
 20 11  1  0  0  0  0
 15  7  2  0  0  0  0
 25 28  1  0  0  0  0
M  END
>  <ID> (9017331)
9017331

>  <Supplier> (9017331)
ChemBridge

>  <clogP> (9017331)
1.920000000000000e+000

>  <RB> (9017331)
3

>  <tPSA> (9017331)
7.894999999999995e+001

>  <Hacc> (9017331)
6

>  <Hdon> (9017331)
1

>  <LogSw> (9017331)
-3.810000000000000e+000

>  <Group> (9017331)
2

>  <Core> (9017331)
167

$$$$
7334354
  -ISIS-  03310818262D

 26 26  0  0  0  0  0  0  0  0999 V2000
    2.2250    2.1083    0.0000 N   0  0  3  0  0  0  0  0  0  0  0  0
    1.0292   -0.3292    0.0000 C   0  0  0  0  0  0  0  0  0  0  0  0
    0.2917   -0.4625    0.0000 C   0  0  0  0  0  0  0  0  0  0  0  0
    3.5250    2.8583    0.0000 O   0  0  0  0  0  0  0  0  0  0  0  0
    1.5125   -0.9000    0.0000 O   0  0  0  0  0  0  0  0  0  0  0  0
   -0.1958    0.1125    0.0000 O   0  0  0  0  0  0  0  0  0  0  0  0
    3.5250    2.1083    0.0000 C   0  0  3  0  0  0  0  0  0  0  0  0
    2.8750    3.2333    0.0000 C   0  0  3  0  0  0  0  0  0  0  0  0
    2.8750    1.7333    0.0000 C   0  0  0  0  0  0  0  0  0  0  0  0
    2.2250    2.8583    0.0000 C   0  0  0  0  0  0  0  0  0  0  0  0
    0.0375   -1.1667    0.0000 O   0  0  0  0  0  0  0  0  0  0  0  0
    1.2792    0.3833    0.0000 O   0  0  0  0  0  0  0  0  0  0  0  0
   -1.6750    2.1083    0.0000 C   0  0  0  0  0  0  0  0  0  0  0  0
   -1.0250    1.7333    0.0000 C   0  0  0  0  0  0  0  0  0  0  0  0
    1.5750    1.7333    0.0000 C   0  0  0  0  0  0  0  0  0  0  0  0
   -2.3208    1.7333    0.0000 C   0  0  0  0  0  0  0  0  0  0  0  0
    0.9250    2.1083    0.0000 C   0  0  0  0  0  0  0  0  0  0  0  0
   -0.3750    2.1083    0.0000 O   0  0  0  0  0  0  0  0  0  0  0  0
   -1.6750    0.6083    0.0000 C   0  0  0  0  0  0  0  0  0  0  0  0
    0.2750    1.7333    0.0000 C   0  0  0  0  0  0  0  0  0  0  0  0
   -1.0250    0.9833    0.0000 C   0  0  0  0  0  0  0  0  0  0  0  0
   -2.3208    0.9833    0.0000 C   0  0  0  0  0  0  0  0  0  0  0  0
    2.8750    3.9833    0.0000 C   0  0  0  0  0  0  0  0  0  0  0  0
    4.1667    1.7333    0.0000 C   0  0  0  0  0  0  0  0  0  0  0  0
   -2.9708    2.1083    0.0000 C   0  0  0  0  0  0  0  0  0  0  0  0
   -3.6208    1.7333    0.0000 C   0  0  0  0  0  0  0  0  0  0  0  0
  3  2  1  0  0  0  0
  4  7  1  0  0  0  0
  5  2  2  0  0  0  0
  6  3  2  0  0  0  0
  7  9  1  0  0  0  0
  8 10  1  0  0  0  0
  9  1  1  0  0  0  0
 10  1  1  0  0  0  0
 11  3  1  0  0  0  0
 12  2  1  0  0  0  0
 13 14  1  0  0  0  0
 14 18  1  0  0  0  0
 15  1  1  0  0  0  0
 16 13  2  0  0  0  0
 17 15  1  0  0  0  0
 18 20  1  0  0  0  0
 19 21  1  0  0  0  0
 20 17  1  0  0  0  0
 21 14  2  0  0  0  0
 22 19  2  0  0  0  0
 23  8  1  0  0  0  0
 24  7  1  0  0  0  0
 25 16  1  0  0  0  0
 26 25  1  0  0  0  0
  4  8  1  0  0  0  0
 16 22  1  0  0  0  0
M  END
>  <ID> (7334354)
7334354

>  <Supplier> (7334354)
ChemBridge

>  <clogP> (7334354)
9.600000000000000e-001

>  <RB> (7334354)
5

>  <tPSA> (7334354)
9.630000000000001e+001

>  <Hacc> (7334354)
7

>  <Hdon> (7334354)
2

>  <LogSw> (7334354)
-1.035000000000000e+000

>  <Group> (7334354)
2

>  <Core> (7334354)
104

$$$$
7645329
  -ISIS-  03310818262D

 33 39  0  0  0  0  0  0  0  0999 V2000
   -0.5333   -0.0417    0.0000 N   0  0  3  0  0  0  0  0  0  0  0  0
    0.1542    0.3833    0.0000 C   0  0  0  0  0  0  0  0  0  0  0  0
    0.8667   -0.8375    0.0000 C   0  0  0  0  0  0  0  0  0  0  0  0
    0.1792   -1.2417    0.0000 C   0  0  0  0  0  0  0  0  0  0  0  0
    1.5792   -1.2417    0.0000 C   0  0  0  0  0  0  0  0  0  0  0  0
   -0.5458    1.5833    0.0000 C   0  0  0  0  0  0  0  0  0  0  0  0
   -1.2458    1.1625    0.0000 C   0  0  0  0  0  0  0  0  0  0  0  0
    0.1542    1.1833    0.0000 N   0  0  0  0  0  0  0  0  0  0  0  0
   -1.2208    0.3583    0.0000 C   0  0  3  0  0  0  0  0  0  0  0  0
    0.8542   -0.0167    0.0000 S   0  0  0  0  0  0  0  0  0  0  0  0
    2.3292   -0.9042    0.0000 C   0  0  0  0  0  0  0  0  0  0  0  0
    2.8792   -1.5167    0.0000 N   0  0  0  0  0  0  0  0  0  0  0  0
    1.6667   -2.0542    0.0000 C   0  0  0  0  0  0  0  0  0  0  0  0
   -0.5583    2.3958    0.0000 C   0  0  0  0  0  0  0  0  0  0  0  0
   -1.9208   -0.0542    0.0000 C   0  0  0  0  0  0  0  0  0  0  0  0
    2.4792   -2.2292    0.0000 C   0  0  0  0  0  0  0  0  0  0  0  0
   -1.9333    1.5625    0.0000 C   0  0  0  0  0  0  0  0  0  0  0  0
   -1.9083   -0.8667    0.0000 S   0  0  0  0  0  0  0  0  0  0  0  0
   -0.0333   -2.0375    0.0000 O   0  0  0  0  0  0  0  0  0  0  0  0
    2.4917   -0.0917    0.0000 O   0  0  0  0  0  0  0  0  0  0  0  0
   -1.2583    2.7958    0.0000 C   0  0  0  0  0  0  0  0  0  0  0  0
   -2.6208    0.3458    0.0000 C   0  0  0  0  0  0  0  0  0  0  0  0
   -2.6083   -1.2792    0.0000 C   0  0  0  0  0  0  0  0  0  0  0  0
   -1.9458    2.3833    0.0000 C   0  0  0  0  0  0  0  0  0  0  0  0
   -3.3083   -0.8792    0.0000 C   0  0  0  0  0  0  0  0  0  0  0  0
    1.1167   -2.6667    0.0000 C   0  0  0  0  0  0  0  0  0  0  0  0
    0.1292    2.8000    0.0000 C   0  0  0  0  0  0  0  0  0  0  0  0
    2.7292   -3.0042    0.0000 C   0  0  0  0  0  0  0  0  0  0  0  0
   -1.2708    3.5958    0.0000 C   0  0  0  0  0  0  0  0  0  0  0  0
    0.1292    3.6208    0.0000 C   0  0  0  0  0  0  0  0  0  0  0  0
    1.3792   -3.4417    0.0000 C   0  0  0  0  0  0  0  0  0  0  0  0
    2.1917   -3.6167    0.0000 C   0  0  0  0  0  0  0  0  0  0  0  0
   -0.5708    4.0125    0.0000 C   0  0  0  0  0  0  0  0  0  0  0  0
  2  1  1  0  0  0  0
  3  4  1  0  0  0  0
  4  1  1  0  0  0  0
  5  3  2  0  0  0  0
  6  7  2  0  0  0  0
  7  9  1  0  0  0  0
  8  2  2  0  0  0  0
  9  1  1  0  0  0  0
 10  2  1  0  0  0  0
 11  5  1  0  0  0  0
 12 11  1  0  0  0  0
 13  5  1  0  0  0  0
 14  6  1  0  0  0  0
 15  9  1  0  0  0  0
 16 13  1  0  0  0  0
 17  7  1  0  0  0  0
 18 15  1  0  0  0  0
 19  4  2  0  0  0  0
 20 11  2  0  0  0  0
 21 24  1  0  0  0  0
 22 15  2  0  0  0  0
 23 18  1  0  0  0  0
 24 17  1  0  0  0  0
 25 22  1  0  0  0  0
 26 13  2  0  0  0  0
 27 14  1  0  0  0  0
 28 16  2  0  0  0  0
 29 21  1  0  0  0  0
 30 27  2  0  0  0  0
 31 26  1  0  0  0  0
 32 31  2  0  0  0  0
 33 29  2  0  0  0  0
  3 10  1  0  0  0  0
  6  8  1  0  0  0  0
 23 25  2  0  0  0  0
 14 21  2  0  0  0  0
 12 16  1  0  0  0  0
 30 33  1  0  0  0  0
 32 28  1  0  0  0  0
M  END
>  <ID> (7645329)
7645329

>  <Supplier> (7645329)
ChemBridge

>  <clogP> (7645329)
5.137000000000000e+000

>  <RB> (7645329)
1

>  <tPSA> (7645329)
6.346000000000000e+001

>  <Hacc> (7645329)
3

>  <Hdon> (7645329)
1

>  <LogSw> (7645329)
-7.711000000000000e+000

>  <Group> (7645329)
1

>  <Core> (7645329)
546

$$$$
7513389
  -ISIS-  03310818262D

 22 23  0  0  0  0  0  0  0  0999 V2000
    2.1167    0.2750    0.0000 S   0  0  3  0  0  0  0  0  0  0  0  0
    2.9417    0.2750    0.0000 C   0  0  0  0  0  0  0  0  0  0  0  0
    3.3500    0.9958    0.0000 C   0  0  0  0  0  0  0  0  0  0  0  0
    4.1667    0.9958    0.0000 C   0  0  0  0  0  0  0  0  0  0  0  0
    1.2917    0.2750    0.0000 O   0  0  0  0  0  0  0  0  0  0  0  0
    3.3542   -0.4375    0.0000 C   0  0  0  0  0  0  0  0  0  0  0  0
    0.8792   -0.4375    0.0000 C   0  0  0  0  0  0  0  0  0  0  0  0
    2.1167    1.1000    0.0000 O   0  0  0  0  0  0  0  0  0  0  0  0
    2.1167   -0.5500    0.0000 O   0  0  0  0  0  0  0  0  0  0  0  0
    0.0542   -0.4292    0.0000 C   0  0  0  0  0  0  0  0  0  0  0  0
    4.5917    0.2833    0.0000 C   0  0  0  0  0  0  0  0  0  0  0  0
   -0.3583   -1.1417    0.0000 C   0  0  0  0  0  0  0  0  0  0  0  0
    4.1792   -0.4292    0.0000 C   0  0  0  0  0  0  0  0  0  0  0  0
    1.2917   -1.1417    0.0000 C   0  0  0  0  0  0  0  0  0  0  0  0
    4.5792    1.7125    0.0000 Cl  0  0  0  0  0  0  0  0  0  0  0  0
    2.9292    1.7000    0.0000 O   0  0  0  0  0  0  0  0  0  0  0  0
    0.0500   -1.8542    0.0000 C   0  0  0  0  0  0  0  0  0  0  0  0
    5.4167    0.2875    0.0000 Cl  0  0  0  0  0  0  0  0  0  0  0  0
    0.8792   -1.8542    0.0000 C   0  0  0  0  0  0  0  0  0  0  0  0
   -0.3583    0.2875    0.0000 C   0  0  0  0  0  0  0  0  0  0  0  0
    3.3375    2.4208    0.0000 C   0  0  0  0  0  0  0  0  0  0  0  0
   -0.3625   -2.5667    0.0000 C   0  0  0  0  0  0  0  0  0  0  0  0
  2  1  1  0  0  0  0
  3  2  1  0  0  0  0
  4  3  2  0  0  0  0
  5  1  1  0  0  0  0
  6  2  2  0  0  0  0
  7  5  1  0  0  0  0
  8  1  2  0  0  0  0
  9  1  2  0  0  0  0
 10  7  2  0  0  0  0
 11 13  2  0  0  0  0
 12 10  1  0  0  0  0
 13  6  1  0  0  0  0
 14  7  1  0  0  0  0
 15  4  1  0  0  0  0
 16  3  1  0  0  0  0
 17 19  1  0  0  0  0
 18 11  1  0  0  0  0
 19 14  2  0  0  0  0
 20 10  1  0  0  0  0
 21 16  1  0  0  0  0
 22 17  1  0  0  0  0
 11  4  1  0  0  0  0
 12 17  2  0  0  0  0
M  END
>  <ID> (7513389)
7513389

>  <Supplier> (7513389)
ChemBridge

>  <clogP> (7513389)
4.994000000000000e+000

>  <RB> (7513389)
3

>  <tPSA> (7513389)
5.259999999999999e+001

>  <Hacc> (7513389)
4

>  <Hdon> (7513389)
0

>  <LogSw> (7513389)
-6.437000000000000e+000

>  <Group> (7513389)
1

>  <Core> (7513389)
493

$$$$
7144228
  -ISIS-  03310818252D

 26 28  0  0  0  0  0  0  0  0999 V2000
    2.5167   -6.1292    0.0000 S   0  0  3  0  0  0  0  0  0  0  0  0
    3.3167   -0.4250    0.0000 N   0  0  0  0  0  0  0  0  0  0  0  0
    2.6542   -0.9042    0.0000 C   0  0  0  0  0  0  0  0  0  0  0  0
    3.7292   -1.6917    0.0000 C   0  0  0  0  0  0  0  0  0  0  0  0
    3.9875   -0.9042    0.0000 C   0  0  0  0  0  0  0  0  0  0  0  0
    2.9042   -1.6917    0.0000 S   0  0  0  0  0  0  0  0  0  0  0  0
    2.8542   -5.3792    0.0000 O   0  0  0  0  0  0  0  0  0  0  0  0
    3.2000   -4.6250    0.0000 C   0  0  0  0  0  0  0  0  0  0  0  0
    4.2167   -2.3625    0.0000 C   0  0  0  0  0  0  0  0  0  0  0  0
    2.1750   -6.8792    0.0000 C   0  0  0  0  0  0  0  0  0  0  0  0
    2.7167   -3.9542    0.0000 C   0  0  0  0  0  0  0  0  0  0  0  0
    1.8792   -5.6000    0.0000 O   0  0  0  0  0  0  0  0  0  0  0  0
    3.2625   -6.4750    0.0000 O   0  0  0  0  0  0  0  0  0  0  0  0
    1.8667   -0.6542    0.0000 N   0  0  0  0  0  0  0  0  0  0  0  0
    3.8792   -3.1167    0.0000 C   0  0  0  0  0  0  0  0  0  0  0  0
    4.7750   -0.6542    0.0000 O   0  0  0  0  0  0  0  0  0  0  0  0
    3.0542   -3.2000    0.0000 C   0  0  0  0  0  0  0  0  0  0  0  0
    4.0167   -4.5417    0.0000 C   0  0  0  0  0  0  0  0  0  0  0  0
    1.3542   -6.9542    0.0000 C   0  0  0  0  0  0  0  0  0  0  0  0
    2.6542   -7.5542    0.0000 C   0  0  0  0  0  0  0  0  0  0  0  0
    1.8917   -4.0292    0.0000 Br  0  0  0  0  0  0  0  0  0  0  0  0
    4.3625   -3.7792    0.0000 C   0  0  0  0  0  0  0  0  0  0  0  0
    1.4875   -8.3875    0.0000 C   0  0  0  0  0  0  0  0  0  0  0  0
    1.0125   -7.7042    0.0000 C   0  0  0  0  0  0  0  0  0  0  0  0
    2.3125   -8.3125    0.0000 C   0  0  0  0  0  0  0  0  0  0  0  0
    1.1417   -9.1375    0.0000 Cl  0  0  0  0  0  0  0  0  0  0  0  0
  2  5  1  0  0  0  0
  3  6  1  0  0  0  0
  4  9  2  0  0  0  0
  5  4  1  0  0  0  0
  6  4  1  0  0  0  0
  7  1  1  0  0  0  0
  8  7  1  0  0  0  0
  9 15  1  0  0  0  0
 10  1  1  0  0  0  0
 11  8  1  0  0  0  0
 12  1  2  0  0  0  0
 13  1  2  0  0  0  0
 14  3  2  0  0  0  0
 15 22  2  0  0  0  0
 16  5  2  0  0  0  0
 17 11  2  0  0  0  0
 18  8  2  0  0  0  0
 19 10  2  0  0  0  0
 20 10  1  0  0  0  0
 21 11  1  0  0  0  0
 22 18  1  0  0  0  0
 23 25  1  0  0  0  0
 24 19  1  0  0  0  0
 25 20  2  0  0  0  0
 26 23  1  0  0  0  0
 23 24  2  0  0  0  0
 17 15  1  0  0  0  0
  2  3  1  0  0  0  0
M  END
>  <ID> (7144228)
7144228

>  <Supplier> (7144228)
ChemBridge

>  <clogP> (7144228)
4.130000000000000e+000

>  <RB> (7144228)
4

>  <tPSA> (7144228)
9.631999999999999e+001

>  <Hacc> (7144228)
5

>  <Hdon> (7144228)
2

>  <LogSw> (7144228)
-6.180000000000000e+000

>  <Group> (7144228)
2

>  <Core> (7144228)
004

$$$$
6119804
  -ISIS-  03310818232D

 17 19  0  0  0  0  0  0  0  0999 V2000
    2.4042    2.1000    0.0000 C   0  0  0  0  0  0  0  0  0  0  0  0
    1.2000    2.8000    0.0000 C   0  0  0  0  0  0  0  0  0  0  0  0
    2.4042    0.7000    0.0000 C   0  0  0  0  0  0  0  0  0  0  0  0
    3.7042    2.5208    0.0000 N   0  0  0  0  0  0  0  0  0  0  0  0
    4.5500    1.4000    0.0000 O   0  0  0  0  0  0  0  0  0  0  0  0
    3.7042    0.2833    0.0000 N   0  0  0  0  0  0  0  0  0  0  0  0
    1.2000    4.2000    0.0000 N   0  0  0  0  0  0  0  0  0  0  0  0
    0.0000    2.1000    0.0000 C   0  0  0  0  0  0  0  0  0  0  0  0
    0.0000    0.7000    0.0000 C   0  0  0  0  0  0  0  0  0  0  0  0
    1.2000    0.0000    0.0000 C   0  0  0  0  0  0  0  0  0  0  0  0
    2.1792    5.1542    0.0000 C   0  0  0  0  0  0  0  0  0  0  0  0
    4.2000    7.1167    0.0000 C   0  0  0  0  0  0  0  0  0  0  0  0
    3.5292    4.7792    0.0000 C   0  0  0  0  0  0  0  0  0  0  0  0
    1.8500    6.5042    0.0000 C   0  0  0  0  0  0  0  0  0  0  0  0
    2.8292    7.5000    0.0000 C   0  0  0  0  0  0  0  0  0  0  0  0
    4.5500    5.7542    0.0000 C   0  0  0  0  0  0  0  0  0  0  0  0
    5.1542    8.0917    0.0000 C   0  0  0  0  0  0  0  0  0  0  0  0
  2  1  1  0  0  0  0
  3  1  1  0  0  0  0
  4  1  2  0  0  0  0
  5  4  1  0  0  0  0
  6  3  2  0  0  0  0
  7  2  1  0  0  0  0
  8  2  2  0  0  0  0
  9 10  2  0  0  0  0
 10  3  1  0  0  0  0
 11  7  1  0  0  0  0
 12 15  1  0  0  0  0
 13 11  2  0  0  0  0
 14 11  1  0  0  0  0
 15 14  2  0  0  0  0
 16 13  1  0  0  0  0
 17 12  1  0  0  0  0
  6  5  1  0  0  0  0
  8  9  1  0  0  0  0
 16 12  2  0  0  0  0
M  END
>  <ID> (6119804)
6119804

>  <Supplier> (6119804)
ChemBridge

>  <clogP> (6119804)
4.410000000000000e+000

>  <RB> (6119804)
2

>  <tPSA> (6119804)
5.095000000000000e+001

>  <Hacc> (6119804)
3

>  <Hdon> (6119804)
1

>  <LogSw> (6119804)
-4.609999999999999e+000

>  <Group> (6119804)
3

$$$$
7101900
  -ISIS-  03310818252D

 32 34  0  0  0  0  0  0  0  0999 V2000
    5.5417    0.4083    0.0000 N   0  0  0  0  0  0  0  0  0  0  0  0
    4.1125    0.4083    0.0000 C   0  0  0  0  0  0  0  0  0  0  0  0
    6.9750    0.4083    0.0000 C   0  0  0  0  0  0  0  0  0  0  0  0
    4.8292    0.8208    0.0000 C   0  0  0  0  0  0  0  0  0  0  0  0
    6.2542    0.8208    0.0000 C   0  0  0  0  0  0  0  0  0  0  0  0
    3.4000    0.8208    0.0000 O   0  0  0  0  0  0  0  0  0  0  0  0
    6.9792   -0.4125    0.0000 O   0  0  0  0  0  0  0  0  0  0  0  0
    6.2542   -1.6417    0.0000 C   0  0  0  0  0  0  0  0  0  0  0  0
    2.6792    2.0583    0.0000 C   0  0  0  0  0  0  0  0  0  0  0  0
    1.9667    1.6375    0.0000 C   0  0  0  0  0  0  0  0  0  0  0  0
    6.9667   -2.0625    0.0000 C   0  0  0  0  0  0  0  0  0  0  0  0
    4.1125   -0.4167    0.0000 O   0  0  0  0  0  0  0  0  0  0  0  0
    7.6917    0.8250    0.0000 O   0  0  0  0  0  0  0  0  0  0  0  0
    6.2625   -0.8167    0.0000 C   0  0  0  0  0  0  0  0  0  0  0  0
    3.3917    1.6458    0.0000 C   0  0  0  0  0  0  0  0  0  0  0  0
    5.5417   -2.0500    0.0000 O   0  0  0  0  0  0  0  0  0  0  0  0
    2.6792    2.8833    0.0000 O   0  0  0  0  0  0  0  0  0  0  0  0
    1.2542    2.0458    0.0000 C   0  0  0  0  0  0  0  0  0  0  0  0
    6.9625   -2.8792    0.0000 C   0  0  0  0  0  0  0  0  0  0  0  0
    1.9667    0.8083    0.0000 C   0  0  0  0  0  0  0  0  0  0  0  0
    7.6917   -1.6500    0.0000 C   0  0  0  0  0  0  0  0  0  0  0  0
    0.5417    1.6375    0.0000 C   0  0  0  0  0  0  0  0  0  0  0  0
    1.2542    0.3958    0.0000 C   0  0  0  0  0  0  0  0  0  0  0  0
    8.4000   -2.0667    0.0000 C   0  0  0  0  0  0  0  0  0  0  0  0
    7.6667   -3.3000    0.0000 C   0  0  0  0  0  0  0  0  0  0  0  0
    0.5375    0.8083    0.0000 C   0  0  0  0  0  0  0  0  0  0  0  0
    8.3917   -2.8917    0.0000 C   0  0  0  0  0  0  0  0  0  0  0  0
    4.8292    1.6500    0.0000 C   0  0  0  0  0  0  0  0  0  0  0  0
    6.2542    1.6500    0.0000 C   0  0  0  0  0  0  0  0  0  0  0  0
    5.5417    2.0625    0.0000 C   0  0  0  0  0  0  0  0  0  0  0  0
   -0.1750    0.3958    0.0000 C   0  0  0  0  0  0  0  0  0  0  0  0
    9.1000   -3.3167    0.0000 C   0  0  0  0  0  0  0  0  0  0  0  0
  2  4  1  0  0  0  0
  3  5  1  0  0  0  0
  4  1  1  0  0  0  0
  5  1  2  0  0  0  0
  6  2  1  0  0  0  0
  7  3  1  0  0  0  0
  8 14  1  0  0  0  0
  9 15  1  0  0  0  0
 10  9  1  0  0  0  0
 11  8  1  0  0  0  0
 12  2  2  0  0  0  0
 13  3  2  0  0  0  0
 14  7  1  0  0  0  0
 15  6  1  0  0  0  0
 16  8  2  0  0  0  0
 17  9  2  0  0  0  0
 18 10  2  0  0  0  0
 19 11  2  0  0  0  0
 20 10  1  0  0  0  0
 21 11  1  0  0  0  0
 22 18  1  0  0  0  0
 23 20  2  0  0  0  0
 24 21  2  0  0  0  0
 25 19  1  0  0  0  0
 26 23  1  0  0  0  0
 27 24  1  0  0  0  0
 28  4  2  0  0  0  0
 29  5  1  0  0  0  0
 30 29  2  0  0  0  0
 31 26  1  0  0  0  0
 32 27  1  0  0  0  0
 28 30  1  0  0  0  0
 25 27  2  0  0  0  0
 22 26  2  0  0  0  0
M  END
>  <ID> (7101900)
7101900

>  <Supplier> (7101900)
ChemBridge

>  <clogP> (7101900)
2.900000000000000e+000

>  <RB> (7101900)
10

>  <tPSA> (7101900)
9.963000000000002e+001

>  <Hacc> (7101900)
7

>  <Hdon> (7101900)
0

>  <LogSw> (7101900)
-4.821999999999998e+000

>  <Group> (7101900)
1

>  <Core> (7101900)
217

$$$$
6175000
  -ISIS-  03310818232D

 20 21  0  0  0  0  0  0  0  0999 V2000
    8.5292   -4.1917    0.0000 C   0  0  0  0  0  0  0  0  0  0  0  0
    7.8167   -3.7792    0.0000 N   0  0  0  0  0  0  0  0  0  0  0  0
    7.1042   -4.1917    0.0000 C   0  0  0  0  0  0  0  0  0  0  0  0
    9.2375   -3.7792    0.0000 C   0  0  0  0  0  0  0  0  0  0  0  0
    8.5250   -5.0167    0.0000 C   0  0  0  0  0  0  0  0  0  0  0  0
    5.6750   -4.1917    0.0000 S   0  0  0  0  0  0  0  0  0  0  0  0
    7.1042   -5.0167    0.0000 O   0  0  0  0  0  0  0  0  0  0  0  0
    6.3875   -3.7792    0.0000 C   0  0  0  0  0  0  0  0  0  0  0  0
    4.9542   -3.7792    0.0000 C   0  0  0  0  0  0  0  0  0  0  0  0
    3.5292   -2.9542    0.0000 C   0  0  0  0  0  0  0  0  0  0  0  0
    4.9625   -2.9542    0.0000 C   0  0  0  0  0  0  0  0  0  0  0  0
    4.2500   -4.1917    0.0000 C   0  0  0  0  0  0  0  0  0  0  0  0
    3.5375   -3.7792    0.0000 C   0  0  0  0  0  0  0  0  0  0  0  0
    4.2500   -2.5417    0.0000 C   0  0  0  0  0  0  0  0  0  0  0  0
    9.9500   -5.0250    0.0000 C   0  0  0  0  0  0  0  0  0  0  0  0
    9.2292   -5.4292    0.0000 C   0  0  0  0  0  0  0  0  0  0  0  0
    9.9542   -4.1917    0.0000 C   0  0  0  0  0  0  0  0  0  0  0  0
    9.2375   -2.9542    0.0000 C   0  0  0  0  0  0  0  0  0  0  0  0
    7.8042   -5.4292    0.0000 C   0  0  0  0  0  0  0  0  0  0  0  0
    2.8167   -2.5417    0.0000 C   0  0  0  0  0  0  0  0  0  0  0  0
  2  1  1  0  0  0  0
  3  2  1  0  0  0  0
  4  1  1  0  0  0  0
  5  1  2  0  0  0  0
  6  8  1  0  0  0  0
  7  3  2  0  0  0  0
  8  3  1  0  0  0  0
  9  6  1  0  0  0  0
 10 13  1  0  0  0  0
 11  9  2  0  0  0  0
 12  9  1  0  0  0  0
 13 12  2  0  0  0  0
 14 11  1  0  0  0  0
 15 16  2  0  0  0  0
 16  5  1  0  0  0  0
 17  4  2  0  0  0  0
 18  4  1  0  0  0  0
 19  5  1  0  0  0  0
 20 10  1  0  0  0  0
 15 17  1  0  0  0  0
 14 10  2  0  0  0  0
M  END
>  <ID> (6175000)
6175000

>  <Supplier> (6175000)
ChemBridge

>  <clogP> (6175000)
3.430000000000000e+000

>  <RB> (6175000)
4

>  <tPSA> (6175000)
2.910000000000000e+001

>  <Hacc> (6175000)
1

>  <Hdon> (6175000)
1

>  <LogSw> (6175000)
-4.211000000000000e+000

>  <Group> (6175000)
3

>  <Core> (6175000)
431

$$$$
5943426
  -ISIS-  03310818232D

 21 22  0  0  0  0  0  0  0  0999 V2000
    6.0750   -0.0292    0.0000 N   0  0  0  0  0  0  0  0  0  0  0  0
    5.3625    0.3833    0.0000 C   0  0  0  0  0  0  0  0  0  0  0  0
    6.7792   -0.4375    0.0000 C   0  0  0  0  0  0  0  0  0  0  0  0
    4.6500   -0.0292    0.0000 C   0  0  0  0  0  0  0  0  0  0  0  0
    1.7917   -0.0292    0.0000 C   0  0  0  0  0  0  0  0  0  0  0  0
    3.9375    0.3750    0.0000 C   0  0  0  0  0  0  0  0  0  0  0  0
    1.7917   -0.8667    0.0000 C   0  0  0  0  0  0  0  0  0  0  0  0
    2.5042    0.3750    0.0000 C   0  0  0  0  0  0  0  0  0  0  0  0
    7.4917   -0.0250    0.0000 C   0  0  0  0  0  0  0  0  0  0  0  0
    5.3542    1.2083    0.0000 O   0  0  0  0  0  0  0  0  0  0  0  0
    3.2250   -0.0292    0.0000 C   0  0  0  0  0  0  0  0  0  0  0  0
    2.5042   -1.2792    0.0000 C   0  0  0  0  0  0  0  0  0  0  0  0
    1.0792    0.3708    0.0000 Br  0  0  0  0  0  0  0  0  0  0  0  0
    7.4875    0.7958    0.0000 F   0  0  0  0  0  0  0  0  0  0  0  0
    3.2250   -0.8667    0.0000 C   0  0  0  0  0  0  0  0  0  0  0  0
    1.0792   -1.2792    0.0000 O   0  0  0  0  0  0  0  0  0  0  0  0
    6.7792   -1.2625    0.0000 C   0  0  0  0  0  0  0  0  0  0  0  0
    8.2042   -0.4292    0.0000 C   0  0  0  0  0  0  0  0  0  0  0  0
    1.0792   -2.1042    0.0000 C   0  0  0  0  0  0  0  0  0  0  0  0
    7.4917   -1.6667    0.0000 C   0  0  0  0  0  0  0  0  0  0  0  0
    8.2042   -1.2542    0.0000 C   0  0  0  0  0  0  0  0  0  0  0  0
  2  1  1  0  0  0  0
  3  1  1  0  0  0  0
  4  2  1  0  0  0  0
  5  8  1  0  0  0  0
  6  4  2  0  0  0  0
  7 12  1  0  0  0  0
  8 11  2  0  0  0  0
  9  3  2  0  0  0  0
 10  2  2  0  0  0  0
 11  6  1  0  0  0  0
 12 15  2  0  0  0  0
 13  5  1  0  0  0  0
 14  9  1  0  0  0  0
 15 11  1  0  0  0  0
 16  7  1  0  0  0  0
 17  3  1  0  0  0  0
 18  9  1  0  0  0  0
 19 16  1  0  0  0  0
 20 17  2  0  0  0  0
 21 20  1  0  0  0  0
 18 21  2  0  0  0  0
  7  5  2  0  0  0  0
M  END
>  <ID> (5943426)
5943426

>  <Supplier> (5943426)
ChemBridge

>  <clogP> (5943426)
4.150000000000000e+000

>  <RB> (5943426)
3

>  <tPSA> (5943426)
3.833000000000000e+001

>  <Hacc> (5943426)
2

>  <Hdon> (5943426)
1

>  <LogSw> (5943426)
-5.297000000000000e+000

>  <Group> (5943426)
2

>  <Core> (5943426)
435

$$$$
7616844
  -ISIS-  03310818262D

 28 31  0  0  0  0  0  0  0  0999 V2000
    0.7125   -9.1917    0.0000 S   0  0  3  0  0  0  0  0  0  0  0  0
    1.2000   -8.5167    0.0000 N   0  0  0  0  0  0  0  0  0  0  0  0
    0.7042   -7.8167    0.0000 C   0  0  0  0  0  0  0  0  0  0  0  0
   -0.0875   -8.1125    0.0000 C   0  0  0  0  0  0  0  0  0  0  0  0
   -0.0833   -8.9417    0.0000 C   0  0  0  0  0  0  0  0  0  0  0  0
    2.0042   -6.0750    0.0000 C   0  0  0  0  0  0  0  0  0  0  0  0
    0.9542   -7.0292    0.0000 N   0  0  0  0  0  0  0  0  0  0  0  0
    1.4625   -5.4625    0.0000 O   0  0  0  0  0  0  0  0  0  0  0  0
    0.1417   -9.7792    0.0000 O   0  0  0  0  0  0  0  0  0  0  0  0
    1.3417   -9.5250    0.0000 O   0  0  0  0  0  0  0  0  0  0  0  0
    2.8167   -5.9042    0.0000 C   0  0  0  0  0  0  0  0  0  0  0  0
    0.4000   -6.4167    0.0000 C   0  0  0  0  0  0  0  0  0  0  0  0
    0.6542   -5.6292    0.0000 C   0  0  0  0  0  0  0  0  0  0  0  0
    1.7542   -6.8542    0.0000 O   0  0  0  0  0  0  0  0  0  0  0  0
    3.3667   -6.5167    0.0000 C   0  0  0  0  0  0  0  0  0  0  0  0
   -0.8125   -7.6917    0.0000 C   0  0  0  0  0  0  0  0  0  0  0  0
   -0.8125   -9.3625    0.0000 C   0  0  0  0  0  0  0  0  0  0  0  0
    3.0667   -5.1167    0.0000 C   0  0  0  0  0  0  0  0  0  0  0  0
   -0.4000   -6.6000    0.0000 C   0  0  0  0  0  0  0  0  0  0  0  0
    0.1000   -5.0250    0.0000 C   0  0  0  0  0  0  0  0  0  0  0  0
    3.1125   -7.3042    0.0000 C   0  0  0  0  0  0  0  0  0  0  0  0
    4.1750   -6.3500    0.0000 C   0  0  0  0  0  0  0  0  0  0  0  0
   -1.5333   -8.1125    0.0000 C   0  0  0  0  0  0  0  0  0  0  0  0
   -1.5333   -8.9417    0.0000 C   0  0  0  0  0  0  0  0  0  0  0  0
    3.8750   -4.9500    0.0000 C   0  0  0  0  0  0  0  0  0  0  0  0
   -0.7083   -5.2000    0.0000 C   0  0  0  0  0  0  0  0  0  0  0  0
   -0.9583   -5.9917    0.0000 C   0  0  0  0  0  0  0  0  0  0  0  0
    4.4292   -5.5625    0.0000 C   0  0  0  0  0  0  0  0  0  0  0  0
  2  1  1  0  0  0  0
  3  2  2  0  0  0  0
  4  5  1  0  0  0  0
  5  1  1  0  0  0  0
  6  8  1  0  0  0  0
  7  3  1  0  0  0  0
  8 13  1  0  0  0  0
  9  1  2  0  0  0  0
 10  1  2  0  0  0  0
 11  6  1  0  0  0  0
 12  7  1  0  0  0  0
 13 12  2  0  0  0  0
 14  6  2  0  0  0  0
 15 11  2  0  0  0  0
 16  4  2  0  0  0  0
 17  5  2  0  0  0  0
 18 11  1  0  0  0  0
 19 12  1  0  0  0  0
 20 13  1  0  0  0  0
 21 15  1  0  0  0  0
 22 15  1  0  0  0  0
 23 24  2  0  0  0  0
 24 17  1  0  0  0  0
 25 18  2  0  0  0  0
 26 27  1  0  0  0  0
 27 19  2  0  0  0  0
 28 25  1  0  0  0  0
  3  4  1  0  0  0  0
 16 23  1  0  0  0  0
 20 26  2  0  0  0  0
 22 28  2  0  0  0  0
M  END
>  <ID> (7616844)
7616844

>  <Supplier> (7616844)
ChemBridge

>  <clogP> (7616844)
4.298000000000000e+000

>  <RB> (7616844)
5

>  <tPSA> (7616844)
8.483000000000003e+001

>  <Hacc> (7616844)
5

>  <Hdon> (7616844)
1

>  <LogSw> (7616844)
-4.801000000000000e+000

>  <Group> (7616844)
1

>  <Core> (7616844)
446

$$$$
5344077
  -ISIS-  03310818222D

 16 17  0  0  0  0  0  0  0  0999 V2000
   -2.3125   -0.4500    0.0000 N   0  0  3  0  0  0  0  0  0  0  0  0
   -2.4000    0.5500    0.0000 C   0  0  0  0  0  0  0  0  0  0  0  0
   -3.3958    0.7833    0.0000 S   0  0  0  0  0  0  0  0  0  0  0  0
   -3.2333   -0.8542    0.0000 C   0  0  0  0  0  0  0  0  0  0  0  0
   -3.9000   -0.0917    0.0000 C   0  0  0  0  0  0  0  0  0  0  0  0
   -1.4125   -0.9667    0.0000 C   0  0  0  0  0  0  0  0  0  0  0  0
   -1.6500    1.2625    0.0000 O   0  0  0  0  0  0  0  0  0  0  0  0
   -0.5208   -0.4667    0.0000 N   0  0  3  0  0  0  0  0  0  0  0  0
   -3.5625   -1.8292    0.0000 C   0  0  0  0  0  0  0  0  0  0  0  0
   -4.9208   -0.2875    0.0000 C   0  0  0  0  0  0  0  0  0  0  0  0
    0.3500   -0.9875    0.0000 C   0  0  0  0  0  0  0  0  0  0  0  0
   -0.5125    0.5625    0.0000 C   0  0  0  0  0  0  0  0  0  0  0  0
   -4.5708   -2.0500    0.0000 C   0  0  0  0  0  0  0  0  0  0  0  0
    0.3792    1.0625    0.0000 C   0  0  0  0  0  0  0  0  0  0  0  0
    1.2542   -0.4875    0.0000 C   0  0  0  0  0  0  0  0  0  0  0  0
   -5.2708   -1.2667    0.0000 C   0  0  0  0  0  0  0  0  0  0  0  0
  2  1  1  0  0  0  0
  3  2  1  0  0  0  0
  4  1  1  0  0  0  0
  5  4  1  0  0  0  0
  6  1  1  0  0  0  0
  7  2  2  0  0  0  0
  8  6  1  0  0  0  0
  9  4  2  0  0  0  0
 10  5  2  0  0  0  0
 11  8  1  0  0  0  0
 12  8  1  0  0  0  0
 13  9  1  0  0  0  0
 14 12  1  0  0  0  0
 15 11  1  0  0  0  0
 16 13  2  0  0  0  0
  5  3  1  0  0  0  0
 10 16  1  0  0  0  0
M  END
>  <ID> (5344077)
5344077

>  <Supplier> (5344077)
ChemBridge

>  <clogP> (5344077)
2.240000000000000e+000

>  <RB> (5344077)
1

>  <tPSA> (5344077)
2.524000000000000e+001

>  <Hacc> (5344077)
2

>  <Hdon> (5344077)
0

>  <LogSw> (5344077)
-1.829000000000000e+000

>  <Group> (5344077)
1

$$$$
5344074
  -ISIS-  03310818222D

 18 19  0  0  0  0  0  0  0  0999 V2000
   -0.5958    2.2125    0.0000 C   0  0  0  0  0  0  0  0  0  0  0  0
   -1.2833    1.8208    0.0000 N   0  0  3  0  0  0  0  0  0  0  0  0
   -0.5958    2.9958    0.0000 N   0  0  0  0  0  0  0  0  0  0  0  0
   -1.9708    2.2125    0.0000 C   0  0  0  0  0  0  0  0  0  0  0  0
   -1.9708    3.0000    0.0000 C   0  0  0  0  0  0  0  0  0  0  0  0
   -1.2833    3.4000    0.0000 C   0  0  0  0  0  0  0  0  0  0  0  0
   -1.2833    1.0125    0.0000 C   0  0  0  0  0  0  0  0  0  0  0  0
   -2.6500    1.8000    0.0000 O   0  0  0  0  0  0  0  0  0  0  0  0
    0.0875    1.8125    0.0000 S   0  0  0  0  0  0  0  0  0  0  0  0
   -1.2833    4.1875    0.0000 O   0  0  0  0  0  0  0  0  0  0  0  0
   -1.9458    0.6333    0.0000 C   0  0  0  0  0  0  0  0  0  0  0  0
   -0.5958    0.6333    0.0000 C   0  0  0  0  0  0  0  0  0  0  0  0
    0.7667    2.2083    0.0000 C   0  0  0  0  0  0  0  0  0  0  0  0
    1.4500    1.8125    0.0000 C   0  0  0  0  0  0  0  0  0  0  0  0
    2.1292    2.2083    0.0000 C   0  0  0  0  0  0  0  0  0  0  0  0
   -1.9333   -0.1542    0.0000 C   0  0  0  0  0  0  0  0  0  0  0  0
   -0.5958   -0.1667    0.0000 C   0  0  0  0  0  0  0  0  0  0  0  0
   -1.2625   -0.5542    0.0000 C   0  0  0  0  0  0  0  0  0  0  0  0
  2  1  1  0  0  0  0
  3  1  2  0  0  0  0
  4  2  1  0  0  0  0
  5  6  2  0  0  0  0
  6  3  1  0  0  0  0
  7  2  1  0  0  0  0
  8  4  2  0  0  0  0
  9  1  1  0  0  0  0
 10  6  1  0  0  0  0
 11  7  2  0  0  0  0
 12  7  1  0  0  0  0
 13  9  1  0  0  0  0
 14 13  1  0  0  0  0
 15 14  1  0  0  0  0
 16 11  1  0  0  0  0
 17 12  2  0  0  0  0
 18 17  1  0  0  0  0
  4  5  1  0  0  0  0
 16 18  2  0  0  0  0
M  END
>  <ID> (5344074)
5344074

>  <Supplier> (5344074)
ChemBridge

>  <clogP> (5344074)
2.690000000000000e+000

>  <RB> (5344074)
2

>  <tPSA> (5344074)
5.512000000000000e+001

>  <Hacc> (5344074)
3

>  <Hdon> (5344074)
1

>  <LogSw> (5344074)
-3.411000000000000e+000

>  <Group> (5344074)
3

>  <Core> (5344074)
036

$$$$
7947056
  -ISIS-  03310818272D

 29 30  0  0  0  0  0  0  0  0999 V2000
    3.5667    3.7083    0.0000 C   0  0  0  0  0  0  0  0  0  0  0  0
    2.4125    4.0667    0.0000 C   0  0  0  0  0  0  0  0  0  0  0  0
    3.1250    3.0958    0.0000 C   0  0  0  0  0  0  0  0  0  0  0  0
    2.4125    3.3333    0.0000 C   0  0  0  0  0  0  0  0  0  0  0  0
    3.1250    4.3042    0.0000 S   0  0  0  0  0  0  0  0  0  0  0  0
    6.9417    3.0500    0.0000 N   0  3  0  0  0  0  0  0  0  0  0  0
    6.5667    3.7083    0.0000 C   0  0  0  0  0  0  0  0  0  0  0  0
    1.8042    4.5125    0.0000 C   0  0  0  0  0  0  0  0  0  0  0  0
    4.3167    3.7083    0.0000 N   0  0  0  0  0  0  0  0  0  0  0  0
    4.6917    4.3417    0.0000 C   0  0  0  0  0  0  0  0  0  0  0  0
    3.3542    2.3833    0.0000 C   0  0  0  0  0  0  0  0  0  0  0  0
    5.8167    3.7083    0.0000 C   0  0  0  0  0  0  0  0  0  0  0  0
    5.4417    4.3417    0.0000 C   0  0  0  0  0  0  0  0  0  0  0  0
    6.9417    4.3417    0.0000 C   0  0  0  0  0  0  0  0  0  0  0  0
    1.8792    5.2542    0.0000 N   0  0  3  0  0  0  0  0  0  0  0  0
    6.5667    2.4000    0.0000 O   0  5  0  0  0  0  0  0  0  0  0  0
    7.6917    3.0500    0.0000 O   0  0  0  0  0  0  0  0  0  0  0  0
    1.1167    4.2042    0.0000 O   0  0  0  0  0  0  0  0  0  0  0  0
    4.3167    4.9917    0.0000 O   0  0  0  0  0  0  0  0  0  0  0  0
    4.0917    2.2250    0.0000 O   0  0  0  0  0  0  0  0  0  0  0  0
    5.8167    4.9917    0.0000 C   0  0  0  0  0  0  0  0  0  0  0  0
    6.5667    4.9917    0.0000 C   0  0  0  0  0  0  0  0  0  0  0  0
    1.8042    2.8833    0.0000 C   0  0  0  0  0  0  0  0  0  0  0  0
    2.8542    1.8250    0.0000 O   0  0  0  0  0  0  0  0  0  0  0  0
    7.6917    4.3417    0.0000 O   0  0  0  0  0  0  0  0  0  0  0  0
    1.2792    5.7000    0.0000 C   0  0  0  0  0  0  0  0  0  0  0  0
    2.5667    5.5625    0.0000 C   0  0  0  0  0  0  0  0  0  0  0  0
    3.0875    1.1083    0.0000 C   0  0  0  0  0  0  0  0  0  0  0  0
    8.0667    4.9917    0.0000 C   0  0  0  0  0  0  0  0  0  0  0  0
  2  5  1  0  0  0  0
  3  1  2  0  0  0  0
  4  3  1  0  0  0  0
  5  1  1  0  0  0  0
  6  7  1  0  0  0  0
  7 12  1  0  0  0  0
  8  2  1  0  0  0  0
  9  1  1  0  0  0  0
 10  9  1  0  0  0  0
 11  3  1  0  0  0  0
 12 13  2  0  0  0  0
 13 10  1  0  0  0  0
 14 22  1  0  0  0  0
 15  8  1  0  0  0  0
 16  6  1  0  0  0  0
 17  6  2  0  0  0  0
 18  8  2  0  0  0  0
 19 10  2  0  0  0  0
 20 11  2  0  0  0  0
 21 13  1  0  0  0  0
 22 21  2  0  0  0  0
 23  4  1  0  0  0  0
 24 11  1  0  0  0  0
 25 14  1  0  0  0  0
 26 15  1  0  0  0  0
 27 15  1  0  0  0  0
 28 24  1  0  0  0  0
 29 25  1  0  0  0  0
  4  2  2  0  0  0  0
 14  7  2  0  0  0  0
M  CHG  2   6   1  16  -1
M  END
>  <ID> (7947056)
7947056

>  <Supplier> (7947056)
ChemBridge

>  <clogP> (7947056)
1.528000000000000e+000

>  <RB> (7947056)
4

>  <tPSA> (7947056)
1.280800000000000e+002

>  <Hacc> (7947056)
7

>  <Hdon> (7947056)
1

>  <LogSw> (7947056)
-3.967000000000000e+000

>  <Group> (7947056)
1

>  <Core> (7947056)
269

$$$$
9077635
  -ISIS-  03310818292D

 24 26  0  0  0  0  0  0  0  0999 V2000
    4.2750    1.5708    0.0000 C   0  0  0  0  0  0  0  0  0  0  0  0
    4.9250    1.1958    0.0000 N   0  0  0  0  0  0  0  0  0  0  0  0
    4.2750    2.3208    0.0000 N   0  0  0  0  0  0  0  0  0  0  0  0
    5.5750    2.3208    0.0000 N   0  0  0  0  0  0  0  0  0  0  0  0
    4.9250    2.6958    0.0000 C   0  0  0  0  0  0  0  0  0  0  0  0
    5.5750    1.5708    0.0000 C   0  0  0  0  0  0  0  0  0  0  0  0
    5.5750    3.8208    0.0000 N   0  0  3  0  0  0  0  0  0  0  0  0
    4.9250    3.4458    0.0000 C   0  0  0  0  0  0  0  0  0  0  0  0
    3.6250    1.1958    0.0000 N   0  0  0  0  0  0  0  0  0  0  0  0
    6.2167    3.4458    0.0000 C   0  0  3  0  0  0  0  0  0  0  0  0
    6.2167    1.1958    0.0000 N   0  0  0  0  0  0  0  0  0  0  0  0
    2.9750    1.5708    0.0000 C   0  0  0  0  0  0  0  0  0  0  0  0
    1.6750    2.3208    0.0000 C   0  0  0  0  0  0  0  0  0  0  0  0
    5.5750    4.5625    0.0000 C   0  0  0  0  0  0  0  0  0  0  0  0
    2.3167    1.1958    0.0000 C   0  0  0  0  0  0  0  0  0  0  0  0
    2.9750    2.3208    0.0000 C   0  0  0  0  0  0  0  0  0  0  0  0
    2.3167    2.6958    0.0000 C   0  0  0  0  0  0  0  0  0  0  0  0
    1.6750    1.5708    0.0000 C   0  0  0  0  0  0  0  0  0  0  0  0
    1.0250    2.6958    0.0000 O   0  0  0  0  0  0  0  0  0  0  0  0
    6.2167    2.6958    0.0000 C   0  0  0  0  0  0  0  0  0  0  0  0
    6.8667    3.8208    0.0000 C   0  0  0  0  0  0  0  0  0  0  0  0
    0.3750    2.3208    0.0000 C   0  0  0  0  0  0  0  0  0  0  0  0
    6.2167    4.9375    0.0000 C   0  0  0  0  0  0  0  0  0  0  0  0
    6.8667    4.5625    0.0000 C   0  0  0  0  0  0  0  0  0  0  0  0
  2  1  1  0  0  0  0
  3  1  2  0  0  0  0
  4  5  2  0  0  0  0
  5  3  1  0  0  0  0
  6  2  2  0  0  0  0
  7  8  1  0  0  0  0
  8  5  1  0  0  0  0
  9  1  1  0  0  0  0
 10  7  1  0  0  0  0
 11  6  1  0  0  0  0
 12  9  1  0  0  0  0
 13 17  1  0  0  0  0
 14  7  1  0  0  0  0
 15 12  2  0  0  0  0
 16 12  1  0  0  0  0
 17 16  2  0  0  0  0
 18 15  1  0  0  0  0
 19 13  1  0  0  0  0
 20 10  1  0  0  0  0
 21 10  1  0  0  0  0
 22 19  1  0  0  0  0
 23 14  1  0  0  0  0
 24 23  1  0  0  0  0
  4  6  1  0  0  0  0
 13 18  2  0  0  0  0
 24 21  1  0  0  0  0
M  END
>  <ID> (9077635)
9077635

>  <Supplier> (9077635)
ChemBridge

>  <clogP> (9077635)
3.225000000000000e+000

>  <RB> (9077635)
4

>  <tPSA> (9077635)
8.919000000000000e+001

>  <Hacc> (9077635)
5

>  <Hdon> (9077635)
2

>  <LogSw> (9077635)
-3.341000000000000e+000

>  <Group> (9077635)
2

>  <Core> (9077635)
426

$$$$
9050476
  -ISIS-  03310818282D

 19 21  0  0  0  0  0  0  0  0999 V2000
   -0.5958    1.0958    0.0000 C   0  0  3  0  0  0  0  0  0  0  0  0
   -1.1000    0.2000    0.0000 C   0  0  0  0  0  0  0  0  0  0  0  0
    0.4250    1.2125    0.0000 C   0  0  3  0  0  0  0  0  0  0  0  0
   -1.0250    2.0333    0.0000 C   0  0  3  0  0  0  0  0  0  0  0  0
    0.6250    2.2208    0.0000 C   0  0  3  0  0  0  0  0  0  0  0  0
   -0.5750   -0.6875    0.0000 N   0  0  3  0  0  0  0  0  0  0  0  0
    1.1167    0.4583    0.0000 C   0  0  0  0  0  0  0  0  0  0  0  0
   -0.2708    2.7250    0.0000 C   0  0  0  0  0  0  0  0  0  0  0  0
   -2.1333    0.1875    0.0000 O   0  0  0  0  0  0  0  0  0  0  0  0
   -0.6958    2.7958    0.0000 C   0  0  0  0  0  0  0  0  0  0  0  0
    0.1292    2.8958    0.0000 C   0  0  0  0  0  0  0  0  0  0  0  0
    0.8167   -0.5250    0.0000 O   0  0  0  0  0  0  0  0  0  0  0  0
    2.1250    0.6833    0.0000 O   0  0  0  0  0  0  0  0  0  0  0  0
    0.4500   -0.5917    0.0000 C   0  0  0  0  0  0  0  0  0  0  0  0
   -1.1458   -1.5417    0.0000 C   0  0  0  0  0  0  0  0  0  0  0  0
    1.1542   -1.3417    0.0000 C   0  0  0  0  0  0  0  0  0  0  0  0
   -0.8333   -2.5167    0.0000 C   0  0  0  0  0  0  0  0  0  0  0  0
    1.0125   -2.3625    0.0000 C   0  0  0  0  0  0  0  0  0  0  0  0
    0.1292   -2.8792    0.0000 C   0  0  0  0  0  0  0  0  0  0  0  0
  2  1  1  0  0  0  0
  3  1  1  0  0  0  0
  4  1  1  0  0  0  0
  5  3  1  0  0  0  0
  6  2  1  0  0  0  0
  7  3  1  0  0  0  0
  8  4  1  0  0  0  0
  9  2  2  0  0  0  0
 10  4  1  0  0  0  0
 11 10  1  0  0  0  0
 12  7  2  0  0  0  0
 13  7  1  0  0  0  0
 14  6  1  0  0  0  0
 15  6  1  0  0  0  0
 16 14  1  0  0  0  0
 17 15  1  0  0  0  0
 18 16  1  0  0  0  0
 19 17  1  0  0  0  0
  8  5  1  0  0  0  0
  5 11  1  0  0  0  0
 19 18  1  0  0  0  0
M  END
>  <ID> (9050476)
9050476

>  <Supplier> (9050476)
ChemBridge

>  <clogP> (9050476)
2.023000000000000e+000

>  <RB> (9050476)
2

>  <tPSA> (9050476)
5.761000000000000e+001

>  <Hacc> (9050476)
3

>  <Hdon> (9050476)
1

>  <LogSw> (9050476)
-3.448000000000000e+000

>  <Group> (9050476)
2

$$$$
5344071
  -ISIS-  03310818222D

 16 17  0  0  0  0  0  0  0  0999 V2000
   -0.5000   -1.5792    0.0000 C   0  0  0  0  0  0  0  0  0  0  0  0
   -1.7625   -0.8542    0.0000 C   0  0  0  0  0  0  0  0  0  0  0  0
    0.7542   -0.8542    0.0000 N   0  0  3  0  0  0  0  0  0  0  0  0
    0.7542    0.6000    0.0000 N   0  0  0  0  0  0  0  0  0  0  0  0
   -1.7625    0.6000    0.0000 C   0  0  0  0  0  0  0  0  0  0  0  0
   -0.5000    1.3208    0.0000 C   0  0  0  0  0  0  0  0  0  0  0  0
   -0.5000   -3.0375    0.0000 O   0  0  0  0  0  0  0  0  0  0  0  0
    2.0000   -1.5792    0.0000 C   0  0  0  0  0  0  0  0  0  0  0  0
   -3.0458   -1.5792    0.0000 Cl  0  0  0  0  0  0  0  0  0  0  0  0
   -3.0208    1.3458    0.0000 N   0  0  0  0  0  0  0  0  0  0  0  0
    3.2542   -0.8542    0.0000 C   0  0  0  0  0  0  0  0  0  0  0  0
    2.0000   -3.0375    0.0000 C   0  0  0  0  0  0  0  0  0  0  0  0
   -3.0208    2.8000    0.0000 C   0  0  0  0  0  0  0  0  0  0  0  0
    4.5167   -1.6000    0.0000 C   0  0  0  0  0  0  0  0  0  0  0  0
    3.2542   -3.7542    0.0000 C   0  0  0  0  0  0  0  0  0  0  0  0
    4.5167   -3.0167    0.0000 C   0  0  0  0  0  0  0  0  0  0  0  0
  2  1  1  0  0  0  0
  3  1  1  0  0  0  0
  4  3  1  0  0  0  0
  5  2  2  0  0  0  0
  6  4  2  0  0  0  0
  7  1  2  0  0  0  0
  8  3  1  0  0  0  0
  9  2  1  0  0  0  0
 10  5  1  0  0  0  0
 11  8  2  0  0  0  0
 12  8  1  0  0  0  0
 13 10  1  0  0  0  0
 14 11  1  0  0  0  0
 15 12  2  0  0  0  0
 16 15  1  0  0  0  0
  5  6  1  0  0  0  0
 14 16  2  0  0  0  0
M  END
>  <ID> (5344071)
5344071

>  <Supplier> (5344071)
ChemBridge

>  <clogP> (5344071)
2.000000000000000e+000

>  <RB> (5344071)
1

>  <tPSA> (5344071)
4.692000000000000e+001

>  <Hacc> (5344071)
2

>  <Hdon> (5344071)
1

>  <LogSw> (5344071)
-2.628000000000000e+000

>  <Group> (5344071)
2

>  <Core> (5344071)
179

$$$$
7026237
  -ISIS-  03310818252D

 28 31  0  0  0  0  0  0  0  0999 V2000
    1.0500   -2.0375    0.0000 C   0  0  0  0  0  0  0  0  0  0  0  0
    1.0292   -1.2125    0.0000 C   0  0  0  0  0  0  0  0  0  0  0  0
    2.3125   -1.5917    0.0000 N   0  0  3  0  0  0  0  0  0  0  0  0
    1.8125   -0.9375    0.0000 C   0  0  0  0  0  0  0  0  0  0  0  0
    1.8375   -2.2750    0.0000 C   0  0  0  0  0  0  0  0  0  0  0  0
    5.5875   -1.3542    0.0000 N   0  0  3  0  0  0  0  0  0  0  0  0
    4.3500   -0.8375    0.0000 C   0  0  0  0  0  0  0  0  0  0  0  0
    4.7792   -1.5417    0.0000 C   0  0  0  0  0  0  0  0  0  0  0  0
    3.1292   -1.5792    0.0000 C   0  0  0  0  0  0  0  0  0  0  0  0
    5.6542   -0.5292    0.0000 C   0  0  0  0  0  0  0  0  0  0  0  0
    4.8917   -0.2125    0.0000 C   0  0  0  0  0  0  0  0  0  0  0  0
    3.5292   -0.8542    0.0000 C   0  0  0  0  0  0  0  0  0  0  0  0
    0.4625   -2.6167    0.0000 C   0  0  0  0  0  0  0  0  0  0  0  0
    0.4417   -0.6250    0.0000 C   0  0  0  0  0  0  0  0  0  0  0  0
    4.3792   -2.2667    0.0000 C   0  0  0  0  0  0  0  0  0  0  0  0
    3.5542   -2.2875    0.0000 C   0  0  0  0  0  0  0  0  0  0  0  0
    0.6750   -3.4167    0.0000 O   0  0  0  0  0  0  0  0  0  0  0  0
    0.6542    0.1750    0.0000 O   0  0  0  0  0  0  0  0  0  0  0  0
    2.0500   -3.0667    0.0000 C   0  0  0  0  0  0  0  0  0  0  0  0
    2.0250   -0.1375    0.0000 C   0  0  0  0  0  0  0  0  0  0  0  0
    6.3000   -1.7667    0.0000 C   0  0  0  0  0  0  0  0  0  0  0  0
    6.3042   -0.0292    0.0000 C   0  0  0  0  0  0  0  0  0  0  0  0
    4.7875    0.6083    0.0000 C   0  0  0  0  0  0  0  0  0  0  0  0
   -0.3375   -2.4042    0.0000 C   0  0  0  0  0  0  0  0  0  0  0  0
   -0.3583   -0.8375    0.0000 C   0  0  0  0  0  0  0  0  0  0  0  0
    6.2917   -2.5917    0.0000 C   0  0  0  0  0  0  0  0  0  0  0  0
    5.4417    1.1083    0.0000 C   0  0  0  0  0  0  0  0  0  0  0  0
    6.2042    0.7875    0.0000 C   0  0  0  0  0  0  0  0  0  0  0  0
  2  1  1  0  0  0  0
  3  5  1  0  0  0  0
  4  2  2  0  0  0  0
  5  1  2  0  0  0  0
  6  8  1  0  0  0  0
  7 12  2  0  0  0  0
  8 15  2  0  0  0  0
  9  3  1  0  0  0  0
 10 11  2  0  0  0  0
 11  7  1  0  0  0  0
 12  9  1  0  0  0  0
 13  1  1  0  0  0  0
 14  2  1  0  0  0  0
 15 16  1  0  0  0  0
 16  9  2  0  0  0  0
 17 13  2  0  0  0  0
 18 14  2  0  0  0  0
 19  5  1  0  0  0  0
 20  4  1  0  0  0  0
 21  6  1  0  0  0  0
 22 10  1  0  0  0  0
 23 11  1  0  0  0  0
 24 13  1  0  0  0  0
 25 14  1  0  0  0  0
 26 21  1  0  0  0  0
 27 23  2  0  0  0  0
 28 27  1  0  0  0  0
  4  3  1  0  0  0  0
  8  7  1  0  0  0  0
 10  6  1  0  0  0  0
 28 22  2  0  0  0  0
M  END
>  <ID> (7026237)
7026237

>  <Supplier> (7026237)
ChemBridge

>  <clogP> (7026237)
5.700000000000000e+000

>  <RB> (7026237)
3

>  <tPSA> (7026237)
4.400000000000000e+001

>  <Hacc> (7026237)
4

>  <Hdon> (7026237)
0

>  <LogSw> (7026237)
-7.893000000000000e+000

>  <Group> (7026237)
3

$$$$
5263745
  -ISIS-  03310818212D

 20 21  0  0  0  0  0  0  0  0999 V2000
   -0.2958    0.4208    0.0000 C   0  0  0  0  0  0  0  0  0  0  0  0
   -1.1625    0.9458    0.0000 C   0  0  0  0  0  0  0  0  0  0  0  0
   -1.1625    1.9333    0.0000 C   0  0  0  0  0  0  0  0  0  0  0  0
   -0.2958    2.4583    0.0000 C   0  0  0  0  0  0  0  0  0  0  0  0
   -0.2958   -0.5792    0.0000 N   0  0  0  0  0  0  0  0  0  0  0  0
    0.5875    0.9333    0.0000 O   0  0  0  0  0  0  0  0  0  0  0  0
   -0.2958    3.4458    0.0000 O   0  0  0  0  0  0  0  0  0  0  0  0
    0.5542   -1.0667    0.0000 C   0  0  0  0  0  0  0  0  0  0  0  0
    0.5792    1.9583    0.0000 O   0  0  0  0  0  0  0  0  0  0  0  0
    2.2875   -2.0667    0.0000 C   0  0  0  0  0  0  0  0  0  0  0  0
    1.4167   -0.5792    0.0000 C   0  0  0  0  0  0  0  0  0  0  0  0
    0.5542   -2.0667    0.0000 C   0  0  0  0  0  0  0  0  0  0  0  0
    2.2875   -1.0792    0.0000 C   0  0  0  0  0  0  0  0  0  0  0  0
    1.4167   -2.5667    0.0000 C   0  0  0  0  0  0  0  0  0  0  0  0
   -2.0333    0.4458    0.0000 C   0  0  0  0  0  0  0  0  0  0  0  0
   -2.0333    2.4333    0.0000 C   0  0  0  0  0  0  0  0  0  0  0  0
    3.1542   -2.5542    0.0000 O   0  0  0  0  0  0  0  0  0  0  0  0
    3.1667   -3.5500    0.0000 C   0  0  0  0  0  0  0  0  0  0  0  0
   -2.8958    0.9458    0.0000 C   0  0  0  0  0  0  0  0  0  0  0  0
   -2.8958    1.9583    0.0000 C   0  0  0  0  0  0  0  0  0  0  0  0
  2  1  1  0  0  0  0
  3  2  2  0  0  0  0
  4  3  1  0  0  0  0
  5  1  1  0  0  0  0
  6  1  2  0  0  0  0
  7  4  2  0  0  0  0
  8  5  1  0  0  0  0
  9  4  1  0  0  0  0
 10 14  2  0  0  0  0
 11  8  1  0  0  0  0
 12  8  2  0  0  0  0
 13 11  2  0  0  0  0
 14 12  1  0  0  0  0
 15  2  1  0  0  0  0
 16  3  1  0  0  0  0
 17 10  1  0  0  0  0
 18 17  1  0  0  0  0
 19 15  2  0  0  0  0
 20 19  1  0  0  0  0
 10 13  1  0  0  0  0
 16 20  2  0  0  0  0
M  END
>  <ID> (5263745)
5263745

>  <Supplier> (5263745)
ChemBridge

>  <clogP> (5263745)
1.580000000000000e+000

>  <RB> (5263745)
3

>  <tPSA> (5263745)
7.563000000000000e+001

>  <Hacc> (5263745)
4

>  <Hdon> (5263745)
2

>  <LogSw> (5263745)
-2.528000000000000e+000

>  <Group> (5263745)
3

>  <Core> (5263745)
511

$$$$
5263746
  -ISIS-  03310818212D

 20 22  0  0  0  0  0  0  0  0999 V2000
   -3.2833    2.9625    0.0000 N   0  0  3  0  0  0  0  0  0  0  0  0
   -3.9625    3.3458    0.0000 C   0  0  0  0  0  0  0  0  0  0  0  0
   -1.9333    2.1833    0.0000 N   0  0  3  0  0  0  0  0  0  0  0  0
   -4.6458    2.9625    0.0000 N   0  0  0  0  0  0  0  0  0  0  0  0
   -2.6000    3.3458    0.0000 C   0  0  0  0  0  0  0  0  0  0  0  0
   -3.2833    2.1833    0.0000 C   0  0  0  0  0  0  0  0  0  0  0  0
   -1.2500    1.7958    0.0000 C   0  0  0  0  0  0  0  0  0  0  0  0
   -0.5708    2.1958    0.0000 C   0  0  0  0  0  0  0  0  0  0  0  0
   -1.9333    2.9625    0.0000 C   0  0  0  0  0  0  0  0  0  0  0  0
   -2.6000    1.7958    0.0000 C   0  0  0  0  0  0  0  0  0  0  0  0
    0.1000    1.8000    0.0000 C   0  0  0  0  0  0  0  0  0  0  0  0
    0.7667    2.1958    0.0000 C   0  0  0  0  0  0  0  0  0  0  0  0
    1.4375    1.8000    0.0000 F   0  0  0  0  0  0  0  0  0  0  0  0
   -3.9625    4.1375    0.0000 C   0  0  0  0  0  0  0  0  0  0  0  0
    0.1000    3.3625    0.0000 C   0  0  0  0  0  0  0  0  0  0  0  0
   -5.3000    3.3458    0.0000 C   0  0  0  0  0  0  0  0  0  0  0  0
   -0.5708    2.9708    0.0000 C   0  0  0  0  0  0  0  0  0  0  0  0
    0.7667    2.9708    0.0000 C   0  0  0  0  0  0  0  0  0  0  0  0
   -4.6458    4.5167    0.0000 C   0  0  0  0  0  0  0  0  0  0  0  0
   -5.3000    4.1375    0.0000 C   0  0  0  0  0  0  0  0  0  0  0  0
  2  1  1  0  0  0  0
  3 10  1  0  0  0  0
  4  2  1  0  0  0  0
  5  1  1  0  0  0  0
  6  1  1  0  0  0  0
  7  3  1  0  0  0  0
  8  7  1  0  0  0  0
  9  5  1  0  0  0  0
 10  6  1  0  0  0  0
 11  8  1  0  0  0  0
 12 11  2  0  0  0  0
 13 12  1  0  0  0  0
 14  2  2  0  0  0  0
 15 17  1  0  0  0  0
 16  4  2  0  0  0  0
 17  8  2  0  0  0  0
 18 15  2  0  0  0  0
 19 14  1  0  0  0  0
 20 19  2  0  0  0  0
  3  9  1  0  0  0  0
 20 16  1  0  0  0  0
 12 18  1  0  0  0  0
M  END
>  <ID> (5263746)
5263746

>  <Supplier> (5263746)
ChemBridge

>  <clogP> (5263746)
2.910000000000000e+000

>  <RB> (5263746)
3

>  <tPSA> (5263746)
1.937000000000000e+001

>  <Hacc> (5263746)
2

>  <Hdon> (5263746)
0

>  <LogSw> (5263746)
-2.656000000000000e+000

>  <Group> (5263746)
2

>  <Core> (5263746)
162

$$$$
9077634
  -ISIS-  03310818292D

 18 19  0  0  0  0  0  0  0  0999 V2000
    6.2042    1.7125    0.0000 N   0  0  3  0  0  0  0  0  0  0  0  0
    7.3917    1.9708    0.0000 C   0  0  3  0  0  0  0  0  0  0  0  0
    6.2875    2.4583    0.0000 C   0  0  0  0  0  0  0  0  0  0  0  0
    8.1417    1.8958    0.0000 C   0  0  0  0  0  0  0  0  0  0  0  0
    6.8917    1.4083    0.0000 C   0  0  0  0  0  0  0  0  0  0  0  0
    7.0167    2.6208    0.0000 C   0  0  0  0  0  0  0  0  0  0  0  0
    5.5542    1.3375    0.0000 C   0  0  0  0  0  0  0  0  0  0  0  0
    8.5792    2.4958    0.0000 N   0  0  3  0  0  0  0  0  0  0  0  0
    5.7292    2.9625    0.0000 O   0  0  0  0  0  0  0  0  0  0  0  0
    8.4417    1.2083    0.0000 O   0  0  0  0  0  0  0  0  0  0  0  0
    4.9042    1.7125    0.0000 C   0  0  0  0  0  0  0  0  0  0  0  0
    4.2542    1.3375    0.0000 C   0  0  0  0  0  0  0  0  0  0  0  0
    5.5542    0.5875    0.0000 C   0  0  0  0  0  0  0  0  0  0  0  0
    4.9042    0.2125    0.0000 C   0  0  0  0  0  0  0  0  0  0  0  0
    9.3292    2.4208    0.0000 C   0  0  0  0  0  0  0  0  0  0  0  0
    8.2750    3.1833    0.0000 C   0  0  0  0  0  0  0  0  0  0  0  0
    4.2542    0.5875    0.0000 C   0  0  0  0  0  0  0  0  0  0  0  0
    3.6042    1.7125    0.0000 C   0  0  0  0  0  0  0  0  0  0  0  0
  2  5  1  0  0  0  0
  3  1  1  0  0  0  0
  4  2  1  0  0  0  0
  5  1  1  0  0  0  0
  6  3  1  0  0  0  0
  7  1  1  0  0  0  0
  8  4  1  0  0  0  0
  9  3  2  0  0  0  0
 10  4  2  0  0  0  0
 11  7  1  0  0  0  0
 12 11  2  0  0  0  0
 13  7  2  0  0  0  0
 14 13  1  0  0  0  0
 15  8  1  0  0  0  0
 16  8  1  0  0  0  0
 17 14  2  0  0  0  0
 18 12  1  0  0  0  0
  2  6  1  0  0  0  0
 12 17  1  0  0  0  0
M  END
>  <ID> (9077634)
9077634

>  <Supplier> (9077634)
ChemBridge

>  <clogP> (9077634)
2.587000000000000e+000

>  <RB> (9077634)
2

>  <tPSA> (9077634)
4.061999999999998e+001

>  <Hacc> (9077634)
2

>  <Hdon> (9077634)
0

>  <LogSw> (9077634)
-3.206000000000000e+000

>  <Group> (9077634)
3

>  <Core> (9077634)
124

$$$$
7995181
  -ISIS-  03310818282D

 30 32  0  0  0  0  0  0  0  0999 V2000
    4.0500    2.3583    0.0000 N   0  0  3  0  0  0  0  0  0  0  0  0
    7.9500    3.1083    0.0000 C   0  0  0  0  0  0  0  0  0  0  0  0
    1.4542    0.8583    0.0000 C   0  0  0  0  0  0  0  0  0  0  0  0
    5.3500    3.1083    0.0000 N   0  0  3  0  0  0  0  0  0  0  0  0
    3.4000    1.9833    0.0000 C   0  0  0  0  0  0  0  0  0  0  0  0
    8.5917    3.4833    0.0000 N   0  0  0  0  0  0  0  0  0  0  0  0
    2.1042    1.2333    0.0000 C   0  0  0  0  0  0  0  0  0  0  0  0
    4.0500    3.1083    0.0000 C   0  0  0  0  0  0  0  0  0  0  0  0
    4.7000    1.9833    0.0000 C   0  0  0  0  0  0  0  0  0  0  0  0
    7.9500    2.3583    0.0000 O   0  0  0  0  0  0  0  0  0  0  0  0
    0.8042    1.2333    0.0000 O   0  0  0  0  0  0  0  0  0  0  0  0
    7.3000    3.4833    0.0000 N   0  0  0  0  0  0  0  0  0  0  0  0
    3.4000    1.2333    0.0000 C   0  0  0  0  0  0  0  0  0  0  0  0
    2.7500    2.3583    0.0000 C   0  0  0  0  0  0  0  0  0  0  0  0
    2.1042    1.9833    0.0000 C   0  0  0  0  0  0  0  0  0  0  0  0
    2.7500    0.8583    0.0000 C   0  0  0  0  0  0  0  0  0  0  0  0
    4.7000    3.4833    0.0000 C   0  0  0  0  0  0  0  0  0  0  0  0
    5.3500    2.3583    0.0000 C   0  0  0  0  0  0  0  0  0  0  0  0
    9.2417    3.1083    0.0000 C   0  0  0  0  0  0  0  0  0  0  0  0
    1.4542    0.1083    0.0000 O   0  0  0  0  0  0  0  0  0  0  0  0
   10.5417    2.3583    0.0000 C   0  0  0  0  0  0  0  0  0  0  0  0
    9.8917    3.4833    0.0000 C   0  0  0  0  0  0  0  0  0  0  0  0
    9.2417    2.3583    0.0000 C   0  0  0  0  0  0  0  0  0  0  0  0
    6.6500    3.1083    0.0000 C   0  0  0  0  0  0  0  0  0  0  0  0
    9.8917    1.9833    0.0000 C   0  0  0  0  0  0  0  0  0  0  0  0
   10.5417    3.1083    0.0000 C   0  0  0  0  0  0  0  0  0  0  0  0
    6.0000    3.4833    0.0000 C   0  0  0  0  0  0  0  0  0  0  0  0
   11.1917    1.9833    0.0000 O   0  0  0  0  0  0  0  0  0  0  0  0
    0.8042   -0.2667    0.0000 C   0  0  0  0  0  0  0  0  0  0  0  0
   11.8417    2.3583    0.0000 C   0  0  0  0  0  0  0  0  0  0  0  0
  2 12  1  0  0  0  0
  3  7  1  0  0  0  0
  4 18  1  0  0  0  0
  5  1  1  0  0  0  0
  6  2  1  0  0  0  0
  7 15  1  0  0  0  0
  8  1  1  0  0  0  0
  9  1  1  0  0  0  0
 10  2  2  0  0  0  0
 11  3  2  0  0  0  0
 12 24  1  0  0  0  0
 13  5  2  0  0  0  0
 14  5  1  0  0  0  0
 15 14  2  0  0  0  0
 16 13  1  0  0  0  0
 17  8  1  0  0  0  0
 18  9  1  0  0  0  0
 19  6  1  0  0  0  0
 20  3  1  0  0  0  0
 21 25  1  0  0  0  0
 22 19  2  0  0  0  0
 23 19  1  0  0  0  0
 24 27  1  0  0  0  0
 25 23  2  0  0  0  0
 26 22  1  0  0  0  0
 27  4  1  0  0  0  0
 28 21  1  0  0  0  0
 29 20  1  0  0  0  0
 30 28  1  0  0  0  0
  4 17  1  0  0  0  0
  7 16  2  0  0  0  0
 21 26  2  0  0  0  0
M  END
>  <ID> (7995181)
7995181

>  <Supplier> (7995181)
ChemBridge

>  <clogP> (7995181)
3.050000000000000e+000

>  <RB> (7995181)
6

>  <tPSA> (7995181)
8.314000000000000e+001

>  <Hacc> (7995181)
5

>  <Hdon> (7995181)
2

>  <LogSw> (7995181)
-4.811999999999999e+000

>  <Group> (7995181)
2

>  <Core> (7995181)
162

$$$$
5263742
  -ISIS-  03310818212D

 20 22  0  0  0  0  0  0  0  0999 V2000
   -0.6458    2.0708    0.0000 C   0  0  0  0  0  0  0  0  0  0  0  0
   -1.9708    2.0708    0.0000 N   0  0  3  0  0  0  0  0  0  0  0  0
   -1.3125    1.6958    0.0000 C   0  0  0  0  0  0  0  0  0  0  0  0
   -2.6458    1.6958    0.0000 C   0  0  0  0  0  0  0  0  0  0  0  0
   -3.3125    2.0708    0.0000 C   0  0  0  0  0  0  0  0  0  0  0  0
    0.0042    1.7000    0.0000 C   0  0  0  0  0  0  0  0  0  0  0  0
   -0.6458    2.8500    0.0000 C   0  0  0  0  0  0  0  0  0  0  0  0
   -3.3125    2.8708    0.0000 C   0  0  0  0  0  0  0  0  0  0  0  0
   -1.9708    2.8708    0.0000 C   0  0  0  0  0  0  0  0  0  0  0  0
   -2.6458    3.2333    0.0000 C   0  0  0  0  0  0  0  0  0  0  0  0
    0.6792    2.0708    0.0000 C   0  0  0  0  0  0  0  0  0  0  0  0
    0.0042    3.2458    0.0000 C   0  0  0  0  0  0  0  0  0  0  0  0
    0.6792    2.8500    0.0000 C   0  0  0  0  0  0  0  0  0  0  0  0
    0.0042    4.0167    0.0000 Br  0  0  0  0  0  0  0  0  0  0  0  0
    0.0042    0.9458    0.0000 O   0  0  0  0  0  0  0  0  0  0  0  0
   -3.9708    1.6958    0.0000 C   0  0  0  0  0  0  0  0  0  0  0  0
   -3.9708    3.2333    0.0000 C   0  0  0  0  0  0  0  0  0  0  0  0
    0.6792    0.5500    0.0000 C   0  0  0  0  0  0  0  0  0  0  0  0
   -4.6333    2.0833    0.0000 C   0  0  0  0  0  0  0  0  0  0  0  0
   -4.6333    2.8500    0.0000 C   0  0  0  0  0  0  0  0  0  0  0  0
  2  3  1  0  0  0  0
  3  1  1  0  0  0  0
  4  2  1  0  0  0  0
  5  4  1  0  0  0  0
  6  1  1  0  0  0  0
  7  1  2  0  0  0  0
  8 10  1  0  0  0  0
  9  2  1  0  0  0  0
 10  9  1  0  0  0  0
 11  6  2  0  0  0  0
 12  7  1  0  0  0  0
 13 12  2  0  0  0  0
 14 12  1  0  0  0  0
 15  6  1  0  0  0  0
 16  5  1  0  0  0  0
 17  8  1  0  0  0  0
 18 15  1  0  0  0  0
 19 16  2  0  0  0  0
 20 17  2  0  0  0  0
 13 11  1  0  0  0  0
  8  5  2  0  0  0  0
 20 19  1  0  0  0  0
M  END
>  <ID> (5263742)
5263742

>  <Supplier> (5263742)
ChemBridge

>  <clogP> (5263742)
4.560000000000000e+000

>  <RB> (5263742)
2

>  <tPSA> (5263742)
1.247000000000000e+001

>  <Hacc> (5263742)
2

>  <Hdon> (5263742)
0

>  <LogSw> (5263742)
-4.509000000000000e+000

>  <Group> (5263742)
2

$$$$
9005448
  -ISIS-  03310818282D

 25 27  0  0  0  0  0  0  0  0999 V2000
    6.3542    2.4083    0.0000 N   0  0  0  0  0  0  0  0  0  0  0  0
    7.0417    2.7083    0.0000 C   0  0  0  0  0  0  0  0  0  0  0  0
    6.9625    3.4583    0.0000 N   0  0  0  0  0  0  0  0  0  0  0  0
    5.8542    2.9625    0.0000 C   0  0  0  0  0  0  0  0  0  0  0  0
    6.2292    3.6125    0.0000 O   0  0  0  0  0  0  0  0  0  0  0  0
    7.6917    2.3333    0.0000 C   0  0  0  0  0  0  0  0  0  0  0  0
    4.0542    2.1208    0.0000 C   0  0  0  0  0  0  0  0  0  0  0  0
    4.8042    2.2083    0.0000 N   0  0  0  0  0  0  0  0  0  0  0  0
    7.6917    1.5833    0.0000 C   0  0  0  0  0  0  0  0  0  0  0  0
    3.6167    2.7250    0.0000 O   0  0  0  0  0  0  0  0  0  0  0  0
    5.1042    2.8833    0.0000 C   0  0  0  0  0  0  0  0  0  0  0  0
    3.7500    1.4333    0.0000 C   0  0  0  0  0  0  0  0  0  0  0  0
    3.0042    1.3583    0.0000 C   0  0  0  0  0  0  0  0  0  0  0  0
    1.5125    1.2000    0.0000 C   0  0  0  0  0  0  0  0  0  0  0  0
    8.3417    1.2083    0.0000 C   0  0  0  0  0  0  0  0  0  0  0  0
    2.7000    0.6708    0.0000 C   0  0  0  0  0  0  0  0  0  0  0  0
    2.5667    1.9625    0.0000 C   0  0  0  0  0  0  0  0  0  0  0  0
    1.8167    1.8833    0.0000 C   0  0  0  0  0  0  0  0  0  0  0  0
    1.9542    0.5958    0.0000 C   0  0  0  0  0  0  0  0  0  0  0  0
    0.7667    1.1208    0.0000 O   0  0  0  0  0  0  0  0  0  0  0  0
    8.3417    2.7083    0.0000 C   0  0  0  0  0  0  0  0  0  0  0  0
    8.9875    2.3333    0.0000 C   0  0  0  0  0  0  0  0  0  0  0  0
    8.9875    1.5833    0.0000 C   0  0  0  0  0  0  0  0  0  0  0  0
    8.3417    0.4583    0.0000 C   0  0  0  0  0  0  0  0  0  0  0  0
    0.4625    0.4375    0.0000 C   0  0  0  0  0  0  0  0  0  0  0  0
  2  1  1  0  0  0  0
  3  2  2  0  0  0  0
  4  1  2  0  0  0  0
  5  4  1  0  0  0  0
  6  2  1  0  0  0  0
  7  8  1  0  0  0  0
  8 11  1  0  0  0  0
  9  6  2  0  0  0  0
 10  7  2  0  0  0  0
 11  4  1  0  0  0  0
 12  7  1  0  0  0  0
 13 12  1  0  0  0  0
 14 18  2  0  0  0  0
 15  9  1  0  0  0  0
 16 13  1  0  0  0  0
 17 13  2  0  0  0  0
 18 17  1  0  0  0  0
 19 16  2  0  0  0  0
 20 14  1  0  0  0  0
 21  6  1  0  0  0  0
 22 21  2  0  0  0  0
 23 22  1  0  0  0  0
 24 15  1  0  0  0  0
 25 20  1  0  0  0  0
  5  3  1  0  0  0  0
 23 15  2  0  0  0  0
 14 19  1  0  0  0  0
M  END
>  <ID> (9005448)
9005448

>  <Supplier> (9005448)
ChemBridge

>  <clogP> (9005448)
2.590000000000000e+000

>  <RB> (9005448)
5

>  <tPSA> (9005448)
7.725000000000000e+001

>  <Hacc> (9005448)
5

>  <Hdon> (9005448)
1

>  <LogSw> (9005448)
-3.871999999999999e+000

>  <Group> (9005448)
2

>  <Core> (9005448)
204

$$$$
5263749
  -ISIS-  03310818212D

 24 26  0  0  0  0  0  0  0  0999 V2000
    0.0875    4.1042    0.0000 N   0  3  0  0  0  0  0  0  0  0  0  0
   -3.2958    2.9625    0.0000 N   0  0  3  0  0  0  0  0  0  0  0  0
   -0.5958    2.1708    0.0000 C   0  0  0  0  0  0  0  0  0  0  0  0
    0.0792    3.3208    0.0000 C   0  0  0  0  0  0  0  0  0  0  0  0
   -1.9458    2.1625    0.0000 N   0  0  3  0  0  0  0  0  0  0  0  0
   -0.5958    2.9583    0.0000 C   0  0  0  0  0  0  0  0  0  0  0  0
   -3.9625    3.3458    0.0000 C   0  0  0  0  0  0  0  0  0  0  0  0
   -1.2625    1.7833    0.0000 C   0  0  0  0  0  0  0  0  0  0  0  0
    0.7375    4.5042    0.0000 O   0  5  0  0  0  0  0  0  0  0  0  0
    0.0792    1.7833    0.0000 C   0  0  0  0  0  0  0  0  0  0  0  0
   -0.5833    4.5000    0.0000 O   0  0  0  0  0  0  0  0  0  0  0  0
   -3.2958    2.1625    0.0000 C   0  0  0  0  0  0  0  0  0  0  0  0
   -2.6125    3.3458    0.0000 C   0  0  0  0  0  0  0  0  0  0  0  0
   -3.9625    4.1375    0.0000 C   0  0  0  0  0  0  0  0  0  0  0  0
    0.7500    2.9583    0.0000 C   0  0  0  0  0  0  0  0  0  0  0  0
    0.7500    2.1708    0.0000 C   0  0  0  0  0  0  0  0  0  0  0  0
   -1.9458    2.9625    0.0000 C   0  0  0  0  0  0  0  0  0  0  0  0
   -2.6125    1.7833    0.0000 C   0  0  0  0  0  0  0  0  0  0  0  0
    0.0792    1.0000    0.0000 Cl  0  0  0  0  0  0  0  0  0  0  0  0
   -3.3000    4.5292    0.0000 F   0  0  0  0  0  0  0  0  0  0  0  0
   -4.6458    2.9625    0.0000 C   0  0  0  0  0  0  0  0  0  0  0  0
   -4.6458    4.5167    0.0000 C   0  0  0  0  0  0  0  0  0  0  0  0
   -5.3125    3.3458    0.0000 C   0  0  0  0  0  0  0  0  0  0  0  0
   -5.3125    4.1375    0.0000 C   0  0  0  0  0  0  0  0  0  0  0  0
  2 12  1  0  0  0  0
  3  6  2  0  0  0  0
  4  1  1  0  0  0  0
  5  8  1  0  0  0  0
  6  4  1  0  0  0  0
  7  2  1  0  0  0  0
  8  3  1  0  0  0  0
  9  1  1  0  0  0  0
 10 16  2  0  0  0  0
 11  1  2  0  0  0  0
 12 18  1  0  0  0  0
 13 17  1  0  0  0  0
 14  7  2  0  0  0  0
 15  4  2  0  0  0  0
 16 15  1  0  0  0  0
 17  5  1  0  0  0  0
 18  5  1  0  0  0  0
 19 10  1  0  0  0  0
 20 14  1  0  0  0  0
 21  7  1  0  0  0  0
 22 14  1  0  0  0  0
 23 21  2  0  0  0  0
 24 23  1  0  0  0  0
  3 10  1  0  0  0  0
 13  2  1  0  0  0  0
 24 22  2  0  0  0  0
M  CHG  2   1   1   9  -1
M  END
>  <ID> (5263749)
5263749

>  <Supplier> (5263749)
ChemBridge

>  <clogP> (5263749)
3.630000000000000e+000

>  <RB> (5263749)
3

>  <tPSA> (5263749)
4.962000000000000e+001

>  <Hacc> (5263749)
3

>  <Hdon> (5263749)
0

>  <LogSw> (5263749)
-4.233000000000001e+000

>  <Group> (5263749)
2

>  <Core> (5263749)
162

$$$$
7026238
  -ISIS-  03310818252D

 21 22  0  0  0  0  0  0  0  0999 V2000
    2.7292   -1.4792    0.0000 C   0  0  0  0  0  0  0  0  0  0  0  0
    3.4417    0.6083    0.0000 C   0  0  0  0  0  0  0  0  0  0  0  0
    3.4500   -0.2167    0.0000 N   0  0  0  0  0  0  0  0  0  0  0  0
    3.4417   -1.8917    0.0000 C   0  0  0  0  0  0  0  0  0  0  0  0
    2.7292   -0.6417    0.0000 C   0  0  0  0  0  0  0  0  0  0  0  0
    4.1625    1.0208    0.0000 C   0  0  0  0  0  0  0  0  0  0  0  0
    4.2417    1.8375    0.0000 S   0  0  0  0  0  0  0  0  0  0  0  0
    4.1667   -1.4792    0.0000 N   0  0  0  0  0  0  0  0  0  0  0  0
    4.9292    0.6750    0.0000 C   0  0  0  0  0  0  0  0  0  0  0  0
    2.7250    1.0208    0.0000 O   0  0  0  0  0  0  0  0  0  0  0  0
    5.0542    2.0083    0.0000 C   0  0  0  0  0  0  0  0  0  0  0  0
    3.4417   -2.7250    0.0000 O   0  0  0  0  0  0  0  0  0  0  0  0
    5.4667    1.2875    0.0000 C   0  0  0  0  0  0  0  0  0  0  0  0
    4.8792   -1.8917    0.0000 C   0  0  0  0  0  0  0  0  0  0  0  0
    2.0042   -1.8917    0.0000 C   0  0  0  0  0  0  0  0  0  0  0  0
    2.0042   -0.2292    0.0000 C   0  0  0  0  0  0  0  0  0  0  0  0
    5.6042   -1.4792    0.0000 C   0  0  3  0  0  0  0  0  0  0  0  0
    1.2917   -1.4792    0.0000 C   0  0  0  0  0  0  0  0  0  0  0  0
    6.3167   -1.8917    0.0000 C   0  0  0  0  0  0  0  0  0  0  0  0
    5.6000   -0.6542    0.0000 C   0  0  0  0  0  0  0  0  0  0  0  0
    1.2917   -0.6417    0.0000 C   0  0  0  0  0  0  0  0  0  0  0  0
  2  3  1  0  0  0  0
  3  5  1  0  0  0  0
  4  1  1  0  0  0  0
  5  1  1  0  0  0  0
  6  2  1  0  0  0  0
  7  6  1  0  0  0  0
  8  4  1  0  0  0  0
  9  6  2  0  0  0  0
 10  2  2  0  0  0  0
 11  7  1  0  0  0  0
 12  4  2  0  0  0  0
 13  9  1  0  0  0  0
 14  8  1  0  0  0  0
 15  1  2  0  0  0  0
 16  5  2  0  0  0  0
 17 14  1  0  0  0  0
 18 15  1  0  0  0  0
 19 17  1  0  0  0  0
 20 17  1  0  0  0  0
 21 18  2  0  0  0  0
 16 21  1  0  0  0  0
 13 11  2  0  0  0  0
M  END
>  <ID> (7026238)
7026238

>  <Supplier> (7026238)
ChemBridge

>  <clogP> (7026238)
3.160000000000000e+000

>  <RB> (7026238)
4

>  <tPSA> (7026238)
5.820000000000000e+001

>  <Hacc> (7026238)
2

>  <Hdon> (7026238)
2

>  <LogSw> (7026238)
-4.103999999999998e+000

>  <Group> (7026238)
3

>  <Core> (7026238)
141

$$$$
9027514
  -ISIS-  03310818282D

 23 22  0  0  0  0  0  0  0  0999 V2000
    3.8792   -2.7875    0.0000 C   0  0  0  0  0  0  0  0  0  0  0  0
    2.4417   -2.7875    0.0000 C   0  0  0  0  0  0  0  0  0  0  0  0
    3.1667   -2.3750    0.0000 C   0  0  0  0  0  0  0  0  0  0  0  0
    2.4417   -3.6167    0.0000 C   0  0  0  0  0  0  0  0  0  0  0  0
    8.2000   -2.7875    0.0000 N   0  0  3  0  0  0  0  0  0  0  0  0
    3.8792   -3.6167    0.0000 C   0  0  0  0  0  0  0  0  0  0  0  0
    3.1667   -4.0292    0.0000 C   0  0  0  0  0  0  0  0  0  0  0  0
    9.6292   -3.6167    0.0000 O   0  0  0  0  0  0  0  0  0  0  0  0
    1.7292   -2.3750    0.0000 Cl  0  0  0  0  0  0  0  0  0  0  0  0
    3.1667   -4.8625    0.0000 Cl  0  0  0  0  0  0  0  0  0  0  0  0
    3.1667   -1.5500    0.0000 O   0  0  0  0  0  0  0  0  0  0  0  0
    4.6042   -2.3750    0.0000 C   0  0  0  0  0  0  0  0  0  0  0  0
    5.3167   -2.7875    0.0000 N   0  0  0  0  0  0  0  0  0  0  0  0
    5.1875   -3.8917    0.0000 Cl  0  0  0  0  0  0  0  0  0  0  0  0
    5.1875   -5.2167    0.0000 Cl  0  0  0  0  0  0  0  0  0  0  0  0
    7.4792   -2.3750    0.0000 C   0  0  0  0  0  0  0  0  0  0  0  0
    6.7625   -2.7875    0.0000 C   0  0  0  0  0  0  0  0  0  0  0  0
    8.9042   -2.3750    0.0000 C   0  0  0  0  0  0  0  0  0  0  0  0
    8.2000   -3.6167    0.0000 C   0  0  0  0  0  0  0  0  0  0  0  0
    6.0417   -2.3750    0.0000 C   0  0  0  0  0  0  0  0  0  0  0  0
    8.9042   -4.0292    0.0000 C   0  0  0  0  0  0  0  0  0  0  0  0
    9.6292   -2.7875    0.0000 C   0  0  0  0  0  0  0  0  0  0  0  0
    2.4417   -1.1292    0.0000 C   0  0  0  0  0  0  0  0  0  0  0  0
  2  3  2  0  0  0  0
  3  1  1  0  0  0  0
  4  7  2  0  0  0  0
  5 16  1  0  0  0  0
  6  1  2  0  0  0  0
  7  6  1  0  0  0  0
  8 21  1  0  0  0  0
  9  2  1  0  0  0  0
 10  7  1  0  0  0  0
 11  3  1  0  0  0  0
 12  1  1  0  0  0  0
 13 12  1  0  0  0  0
 16 17  1  0  0  0  0
 17 20  1  0  0  0  0
 18  5  1  0  0  0  0
 19  5  1  0  0  0  0
 20 13  1  0  0  0  0
 21 19  1  0  0  0  0
 22 18  1  0  0  0  0
 23 11  1  0  0  0  0
  2  4  1  0  0  0  0
 22  8  1  0  0  0  0
M  END
>  <ID> (9027514)
9027514

>  <Supplier> (9027514)
ChemBridge

>  <clogP> (9027514)
2.000000000000000e+000

>  <RB> (9027514)
6

>  <tPSA> (9027514)
3.373000000000000e+001

>  <Hacc> (9027514)
4

>  <Hdon> (9027514)
1

>  <LogSw> (9027514)
-2.934000000000000e+000

>  <Group> (9027514)
3

$$$$
7012526
  -ISIS-  03310818252D

 21 22  0  0  0  0  0  0  0  0999 V2000
    3.2250    0.7333    0.0000 N   0  0  0  0  0  0  0  0  0  0  0  0
    3.8667    0.3583    0.0000 C   0  0  0  0  0  0  0  0  0  0  0  0
    2.5042    0.3250    0.0000 C   0  0  0  0  0  0  0  0  0  0  0  0
   -0.0958    0.3458    0.0000 C   0  0  0  0  0  0  0  0  0  0  0  0
    4.5167    0.7333    0.0000 C   0  0  0  0  0  0  0  0  0  0  0  0
    0.5625    0.7208    0.0000 C   0  0  0  0  0  0  0  0  0  0  0  0
    1.2042    0.3375    0.0000 O   0  0  0  0  0  0  0  0  0  0  0  0
   -0.7375    0.7333    0.0000 C   0  0  0  0  0  0  0  0  0  0  0  0
    2.5000   -0.5000    0.0000 O   0  0  0  0  0  0  0  0  0  0  0  0
    0.5667    1.4708    0.0000 C   0  0  0  0  0  0  0  0  0  0  0  0
    1.8542    0.7083    0.0000 C   0  0  0  0  0  0  0  0  0  0  0  0
   -0.7333    1.4833    0.0000 C   0  0  0  0  0  0  0  0  0  0  0  0
   -0.0833    1.8458    0.0000 C   0  0  0  0  0  0  0  0  0  0  0  0
   -1.3833    1.8583    0.0000 Br  0  0  0  0  0  0  0  0  0  0  0  0
    4.5250    1.4833    0.0000 C   0  0  0  0  0  0  0  0  0  0  0  0
    5.1792    1.8583    0.0000 O   0  0  0  0  0  0  0  0  0  0  0  0
    3.8667   -0.3917    0.0000 C   0  0  0  0  0  0  0  0  0  0  0  0
    5.1667    0.3500    0.0000 C   0  0  0  0  0  0  0  0  0  0  0  0
   -0.0958   -0.4042    0.0000 C   0  0  0  0  0  0  0  0  0  0  0  0
    5.1667   -0.4000    0.0000 C   0  0  0  0  0  0  0  0  0  0  0  0
    4.5125   -0.7667    0.0000 C   0  0  0  0  0  0  0  0  0  0  0  0
  2  1  1  0  0  0  0
  3  1  1  0  0  0  0
  4  6  2  0  0  0  0
  5  2  1  0  0  0  0
  6  7  1  0  0  0  0
  7 11  1  0  0  0  0
  8  4  1  0  0  0  0
  9  3  2  0  0  0  0
 10  6  1  0  0  0  0
 11  3  1  0  0  0  0
 12 13  1  0  0  0  0
 13 10  2  0  0  0  0
 14 12  1  0  0  0  0
 15  5  1  0  0  0  0
 16 15  1  0  0  0  0
 17  2  2  0  0  0  0
 18  5  2  0  0  0  0
 19  4  1  0  0  0  0
 20 21  2  0  0  0  0
 21 17  1  0  0  0  0
 20 18  1  0  0  0  0
 12  8  2  0  0  0  0
M  END
>  <ID> (7012526)
7012526

>  <Supplier> (7012526)
ChemBridge

>  <clogP> (7012526)
2.490000000000000e+000

>  <RB> (7012526)
5

>  <tPSA> (7012526)
5.856000000000000e+001

>  <Hacc> (7012526)
3

>  <Hdon> (7012526)
2

>  <LogSw> (7012526)
-3.880000000000000e+000

>  <Group> (7012526)
3

>  <Core> (7012526)
315

$$$$
9146546
  -ISIS-  03310818292D

 20 21  0  0  0  0  0  0  0  0999 V2000
    3.5167    1.0583    0.0000 S   0  0  3  0  0  0  0  0  0  0  0  0
    3.5167    1.8083    0.0000 C   0  0  0  0  0  0  0  0  0  0  0  0
    4.2417    0.8583    0.0000 N   0  0  3  0  0  0  0  0  0  0  0  0
    4.1667    2.1833    0.0000 C   0  0  0  0  0  0  0  0  0  0  0  0
    2.8667    2.1833    0.0000 C   0  0  0  0  0  0  0  0  0  0  0  0
    4.5125    0.1583    0.0000 N   0  0  0  0  0  0  0  0  0  0  0  0
    4.1667    2.9333    0.0000 C   0  0  0  0  0  0  0  0  0  0  0  0
    2.7667    1.1208    0.0000 O   0  0  0  0  0  0  0  0  0  0  0  0
    3.3875    0.3208    0.0000 O   0  0  0  0  0  0  0  0  0  0  0  0
    2.8667    2.9333    0.0000 C   0  0  0  0  0  0  0  0  0  0  0  0
    3.5167    3.3083    0.0000 C   0  0  0  0  0  0  0  0  0  0  0  0
    4.8250    1.3333    0.0000 C   0  0  0  0  0  0  0  0  0  0  0  0
    5.4542    0.9208    0.0000 C   0  0  0  0  0  0  0  0  0  0  0  0
    5.2625    0.2000    0.0000 C   0  0  0  0  0  0  0  0  0  0  0  0
    4.8167    3.3083    0.0000 Cl  0  0  0  0  0  0  0  0  0  0  0  0
    2.2167    1.8083    0.0000 O   0  0  0  0  0  0  0  0  0  0  0  0
    3.5167    4.0417    0.0000 C   0  0  0  0  0  0  0  0  0  0  0  0
    1.5667    2.1833    0.0000 C   0  0  0  0  0  0  0  0  0  0  0  0
    0.9167    1.8083    0.0000 C   0  0  0  0  0  0  0  0  0  0  0  0
    0.2667    2.1833    0.0000 C   0  0  0  0  0  0  0  0  0  0  0  0
  2  1  1  0  0  0  0
  3  1  1  0  0  0  0
  4  2  1  0  0  0  0
  5  2  2  0  0  0  0
  6  3  1  0  0  0  0
  7  4  2  0  0  0  0
  8  1  2  0  0  0  0
  9  1  2  0  0  0  0
 10  5  1  0  0  0  0
 11 10  2  0  0  0  0
 12  3  1  0  0  0  0
 13 12  2  0  0  0  0
 14  6  2  0  0  0  0
 15  7  1  0  0  0  0
 16  5  1  0  0  0  0
 17 11  1  0  0  0  0
 18 16  1  0  0  0  0
 19 18  1  0  0  0  0
 20 19  1  0  0  0  0
 14 13  1  0  0  0  0
 11  7  1  0  0  0  0
M  END
>  <ID> (9146546)
9146546

>  <Supplier> (9146546)
ChemBridge

>  <clogP> (9146546)
2.834000000000000e+000

>  <RB> (9146546)
2

>  <tPSA> (9146546)
6.119000000000000e+001

>  <Hacc> (9146546)
4

>  <Hdon> (9146546)
0

>  <LogSw> (9146546)
-3.916000000000000e+000

>  <Group> (9146546)
2

$$$$
7640663
  -ISIS-  03310818262D

 18 19  0  0  0  0  0  0  0  0999 V2000
    4.1750   -2.3000    0.0000 C   0  0  0  0  0  0  0  0  0  0  0  0
    6.7500   -0.8125    0.0000 N   0  0  0  0  0  0  0  0  0  0  0  0
    9.3125   -2.3000    0.0000 C   0  0  0  0  0  0  0  0  0  0  0  0
    2.6750    0.2750    0.0000 O   0  0  0  0  0  0  0  0  0  0  0  0
    4.1875   -5.2750    0.0000 O   0  0  0  0  0  0  0  0  0  0  0  0
   11.8625   -0.8125    0.0000 C   0  0  0  0  0  0  0  0  0  0  0  0
    2.1000   -7.3750    0.0000 C   0  0  0  0  0  0  0  0  0  0  0  0
    2.8750  -10.2500    0.0000 C   0  0  0  0  0  0  0  0  0  0  0  0
    9.3125   -5.2625    0.0000 C   0  0  0  0  0  0  0  0  0  0  0  0
   11.8500    2.1500    0.0000 C   0  0  0  0  0  0  0  0  0  0  0  0
   14.4250   -2.3000    0.0000 C   0  0  0  0  0  0  0  0  0  0  0  0
    5.7625  -11.0125    0.0000 C   0  0  0  0  0  0  0  0  0  0  0  0
    0.7750  -12.3500    0.0000 C   0  0  0  0  0  0  0  0  0  0  0  0
   11.8625   -6.7500    0.0000 C   0  0  0  0  0  0  0  0  0  0  0  0
   14.4250   -5.2625    0.0000 C   0  0  0  0  0  0  0  0  0  0  0  0
    6.5250  -13.9000    0.0000 C   0  0  0  0  0  0  0  0  0  0  0  0
    1.5500  -15.2125    0.0000 C   0  0  0  0  0  0  0  0  0  0  0  0
    4.4250  -16.0000    0.0000 C   0  0  0  0  0  0  0  0  0  0  0  0
  2  1  1  0  0  0  0
  3  2  1  0  0  0  0
  4  1  2  0  0  0  0
  5  1  1  0  0  0  0
  6  3  1  0  0  0  0
  7  5  1  0  0  0  0
  8  7  1  0  0  0  0
  9  3  2  0  0  0  0
 10  6  1  0  0  0  0
 11  6  2  0  0  0  0
 12  8  1  0  0  0  0
 13  8  2  0  0  0  0
 14  9  1  0  0  0  0
 15 14  2  0  0  0  0
 16 12  2  0  0  0  0
 17 13  1  0  0  0  0
 18 17  2  0  0  0  0
 11 15  1  0  0  0  0
 18 16  1  0  0  0  0
M  END
>  <ID> (7640663)
7640663

>  <Supplier> (7640663)
ChemBridge

>  <clogP> (7640663)
3.118000000000000e+000

>  <RB> (7640663)
4

>  <tPSA> (7640663)
3.833000000000000e+001

>  <Hacc> (7640663)
2

>  <Hdon> (7640663)
1

>  <LogSw> (7640663)
-4.382000000000000e+000

>  <Group> (7640663)
2

$$$$
4015308
  -ISIS-  03310818212D

  9  9  0  0  0  0  0  0  0  0999 V2000
   -1.6458   -1.9542    0.0000 C   0  0  0  0  0  0  0  0  0  0  0  0
   -0.8375   -2.1250    0.0000 C   0  0  0  0  0  0  0  0  0  0  0  0
   -0.9833   -0.7917    0.0000 N   0  0  0  0  0  0  0  0  0  0  0  0
   -0.4250   -1.4042    0.0000 O   0  0  0  0  0  0  0  0  0  0  0  0
   -1.7333   -1.1292    0.0000 C   0  0  0  0  0  0  0  0  0  0  0  0
   -0.5000   -2.8792    0.0000 N   0  0  0  0  0  0  0  0  0  0  0  0
   -2.2583   -2.5042    0.0000 C   0  0  0  0  0  0  0  0  0  0  0  0
   -2.4458   -0.7250    0.0000 C   0  0  0  0  0  0  0  0  0  0  0  0
   -3.1583   -1.1375    0.0000 C   0  0  0  0  0  0  0  0  0  0  0  0
  2  1  2  0  0  0  0
  3  5  2  0  0  0  0
  4  2  1  0  0  0  0
  5  1  1  0  0  0  0
  6  2  1  0  0  0  0
  7  1  1  0  0  0  0
  8  5  1  0  0  0  0
  9  8  1  0  0  0  0
  3  4  1  0  0  0  0
M  END
>  <ID> (4015308)
4015308

>  <Supplier> (4015308)
ChemBridge

>  <clogP> (4015308)
7.400000000000000e-001

>  <RB> (4015308)
0

>  <tPSA> (4015308)
5.205000000000000e+001

>  <Hacc> (4015308)
2

>  <Hdon> (4015308)
1

>  <LogSw> (4015308)
-8.770000000000000e-001

>  <Group> (4015308)
3

$$$$
7640661
  -ISIS-  03310818262D

 26 28  0  0  0  0  0  0  0  0999 V2000
    5.2625   -3.9292    0.0000 C   0  0  0  0  0  0  0  0  0  0  0  0
    4.5417   -3.5167    0.0000 C   0  0  0  0  0  0  0  0  0  0  0  0
    5.2625   -4.7625    0.0000 C   0  0  3  0  0  0  0  0  0  0  0  0
    3.8292   -3.9292    0.0000 N   0  0  0  0  0  0  0  0  0  0  0  0
    3.8292   -4.7625    0.0000 C   0  0  0  0  0  0  0  0  0  0  0  0
    4.5417   -5.1750    0.0000 N   0  0  0  0  0  0  0  0  0  0  0  0
    5.9750   -3.5167    0.0000 C   0  0  0  0  0  0  0  0  0  0  0  0
    5.9750   -5.1667    0.0000 C   0  0  0  0  0  0  0  0  0  0  0  0
    6.6792   -4.7625    0.0000 C   0  0  0  0  0  0  0  0  0  0  0  0
    7.3917   -5.1667    0.0000 C   0  0  0  0  0  0  0  0  0  0  0  0
    4.5417   -2.7042    0.0000 C   0  0  0  0  0  0  0  0  0  0  0  0
    3.1167   -5.1750    0.0000 O   0  0  0  0  0  0  0  0  0  0  0  0
    7.3917   -5.9917    0.0000 C   0  0  0  0  0  0  0  0  0  0  0  0
    5.9750   -5.9917    0.0000 C   0  0  0  0  0  0  0  0  0  0  0  0
    6.6917   -3.9250    0.0000 O   0  0  0  0  0  0  0  0  0  0  0  0
    6.6792   -6.4042    0.0000 C   0  0  0  0  0  0  0  0  0  0  0  0
    8.1167   -4.7500    0.0000 Cl  0  0  0  0  0  0  0  0  0  0  0  0
    5.9667   -2.6917    0.0000 O   0  0  0  0  0  0  0  0  0  0  0  0
    8.1167   -6.4125    0.0000 Cl  0  0  0  0  0  0  0  0  0  0  0  0
    3.8292   -2.2917    0.0000 C   0  0  0  0  0  0  0  0  0  0  0  0
    5.2542   -2.2917    0.0000 C   0  0  0  0  0  0  0  0  0  0  0  0
    6.6792   -2.2667    0.0000 C   0  0  0  0  0  0  0  0  0  0  0  0
    6.6750   -1.4417    0.0000 C   0  0  0  0  0  0  0  0  0  0  0  0
    5.2625   -1.4667    0.0000 C   0  0  0  0  0  0  0  0  0  0  0  0
    3.8292   -1.4667    0.0000 C   0  0  0  0  0  0  0  0  0  0  0  0
    4.5417   -1.0542    0.0000 C   0  0  0  0  0  0  0  0  0  0  0  0
  2  1  2  0  0  0  0
  3  1  1  0  0  0  0
  4  2  1  0  0  0  0
  5  6  1  0  0  0  0
  6  3  1  0  0  0  0
  7  1  1  0  0  0  0
  8  3  1  0  0  0  0
  9  8  1  0  0  0  0
 10  9  2  0  0  0  0
 11  2  1  0  0  0  0
 12  5  2  0  0  0  0
 13 16  2  0  0  0  0
 14  8  2  0  0  0  0
 15  7  2  0  0  0  0
 16 14  1  0  0  0  0
 17 10  1  0  0  0  0
 18  7  1  0  0  0  0
 19 13  1  0  0  0  0
 20 11  1  0  0  0  0
 21 11  2  0  0  0  0
 22 18  1  0  0  0  0
 23 22  1  0  0  0  0
 24 21  1  0  0  0  0
 25 20  2  0  0  0  0
 26 24  2  0  0  0  0
  4  5  1  0  0  0  0
 10 13  1  0  0  0  0
 25 26  1  0  0  0  0
M  END
>  <ID> (7640661)
7640661

>  <Supplier> (7640661)
ChemBridge

>  <clogP> (7640661)
5.119000000000000e+000

>  <RB> (7640661)
3

>  <tPSA> (7640661)
6.743000000000001e+001

>  <Hacc> (7640661)
3

>  <Hdon> (7640661)
2

>  <LogSw> (7640661)
-5.738000000000000e+000

>  <Group> (7640661)
1

>  <Core> (7640661)
072

$$$$
9146542
  -ISIS-  03310818292D

 24 25  0  0  0  0  0  0  0  0999 V2000
    5.0625    1.6000    0.0000 N   0  0  3  0  0  0  0  0  0  0  0  0
    5.7917    1.4458    0.0000 C   0  0  0  0  0  0  0  0  0  0  0  0
    6.1667    2.0958    0.0000 N   0  0  0  0  0  0  0  0  0  0  0  0
    5.6667    2.6500    0.0000 N   0  0  0  0  0  0  0  0  0  0  0  0
    4.9792    2.3458    0.0000 C   0  0  0  0  0  0  0  0  0  0  0  0
    6.1000    0.7583    0.0000 S   0  0  0  0  0  0  0  0  0  0  0  0
    1.0875    2.3458    0.0000 C   0  0  0  0  0  0  0  0  0  0  0  0
    7.1500   -0.0042    0.0000 C   0  0  0  0  0  0  0  0  0  0  0  0
    1.0875    1.5958    0.0000 C   0  0  0  0  0  0  0  0  0  0  0  0
    1.7292    2.7208    0.0000 C   0  0  0  0  0  0  0  0  0  0  0  0
    7.8917   -0.0792    0.0000 O   0  0  0  0  0  0  0  0  0  0  0  0
    6.8417    0.6833    0.0000 C   0  0  0  0  0  0  0  0  0  0  0  0
    1.7292    1.2208    0.0000 C   0  0  0  0  0  0  0  0  0  0  0  0
    4.5042    1.1000    0.0000 C   0  0  0  0  0  0  0  0  0  0  0  0
    6.7042   -0.6125    0.0000 N   0  0  0  0  0  0  0  0  0  0  0  0
    2.3792    2.3458    0.0000 C   0  0  0  0  0  0  0  0  0  0  0  0
    2.3792    1.5958    0.0000 C   0  0  0  0  0  0  0  0  0  0  0  0
    4.3292    2.7208    0.0000 C   0  0  0  0  0  0  0  0  0  0  0  0
    0.4375    1.2208    0.0000 O   0  0  0  0  0  0  0  0  0  0  0  0
    3.6792    2.3458    0.0000 C   0  0  0  0  0  0  0  0  0  0  0  0
    0.4375    2.7208    0.0000 C   0  0  0  0  0  0  0  0  0  0  0  0
    3.0292    2.7208    0.0000 C   0  0  0  0  0  0  0  0  0  0  0  0
    0.4375    0.4708    0.0000 C   0  0  0  0  0  0  0  0  0  0  0  0
    3.7917    1.3333    0.0000 C   0  0  0  0  0  0  0  0  0  0  0  0
  2  1  1  0  0  0  0
  3  2  2  0  0  0  0
  4  5  2  0  0  0  0
  5  1  1  0  0  0  0
  6  2  1  0  0  0  0
  7 10  2  0  0  0  0
  8 12  1  0  0  0  0
  9 13  2  0  0  0  0
 10 16  1  0  0  0  0
 11  8  2  0  0  0  0
 12  6  1  0  0  0  0
 13 17  1  0  0  0  0
 14  1  1  0  0  0  0
 15  8  1  0  0  0  0
 16 22  1  0  0  0  0
 17 16  2  0  0  0  0
 18  5  1  0  0  0  0
 19  9  1  0  0  0  0
 20 18  1  0  0  0  0
 21  7  1  0  0  0  0
 22 20  1  0  0  0  0
 23 19  1  0  0  0  0
 24 14  1  0  0  0  0
  4  3  1  0  0  0  0
  7  9  1  0  0  0  0
M  END
>  <ID> (9146542)
9146542

>  <Supplier> (9146542)
ChemBridge

>  <clogP> (9146542)
1.581000000000000e+000

>  <RB> (9146542)
7

>  <tPSA> (9146542)
8.303000000000000e+001

>  <Hacc> (9146542)
4

>  <Hdon> (9146542)
1

>  <LogSw> (9146542)
-3.091000000000000e+000

>  <Group> (9146542)
2

$$$$
9146543
  -ISIS-  03310818292D

 29 31  0  0  0  0  0  0  0  0999 V2000
    6.7000    0.5708    0.0000 S   0  0  3  0  0  0  0  0  0  0  0  0
    1.4292   -0.1167    0.0000 C   0  0  0  0  0  0  0  0  0  0  0  0
    1.4292    0.6333    0.0000 C   0  0  0  0  0  0  0  0  0  0  0  0
    3.3042    1.1125    0.0000 C   0  0  0  0  0  0  0  0  0  0  0  0
    6.1250    0.0875    0.0000 N   0  0  3  0  0  0  0  0  0  0  0  0
    2.7292    0.6333    0.0000 N   0  0  0  0  0  0  0  0  0  0  0  0
    0.7792   -0.4917    0.0000 N   0  0  3  0  0  0  0  0  0  0  0  0
    2.0792    1.0083    0.0000 C   0  0  0  0  0  0  0  0  0  0  0  0
    7.3125    0.1375    0.0000 O   0  0  0  0  0  0  0  0  0  0  0  0
    7.1792    1.1458    0.0000 O   0  0  0  0  0  0  0  0  0  0  0  0
    4.0125    0.8583    0.0000 C   0  0  0  0  0  0  0  0  0  0  0  0
    5.4167    0.3458    0.0000 C   0  0  0  0  0  0  0  0  0  0  0  0
    1.8875   -0.3792    0.0000 O   0  0  0  0  0  0  0  0  0  0  0  0
    3.1750    1.8500    0.0000 O   0  0  0  0  0  0  0  0  0  0  0  0
    4.5875    1.3375    0.0000 C   0  0  0  0  0  0  0  0  0  0  0  0
    4.1417    0.1208    0.0000 C   0  0  0  0  0  0  0  0  0  0  0  0
    4.8417   -0.1375    0.0000 C   0  0  0  0  0  0  0  0  0  0  0  0
    5.2917    1.0833    0.0000 C   0  0  0  0  0  0  0  0  0  0  0  0
    6.1667    1.1000    0.0000 C   0  0  0  0  0  0  0  0  0  0  0  0
    0.7792    1.0083    0.0000 C   0  0  0  0  0  0  0  0  0  0  0  0
    0.7042   -1.2417    0.0000 C   0  0  0  0  0  0  0  0  0  0  0  0
    0.0917   -0.1875    0.0000 C   0  0  0  0  0  0  0  0  0  0  0  0
    6.2542   -0.6500    0.0000 C   0  0  0  0  0  0  0  0  0  0  0  0
    2.0792    1.7583    0.0000 C   0  0  0  0  0  0  0  0  0  0  0  0
    5.6792   -1.1292    0.0000 C   0  0  0  0  0  0  0  0  0  0  0  0
    0.7792    1.7583    0.0000 C   0  0  0  0  0  0  0  0  0  0  0  0
   -0.4083   -0.7417    0.0000 C   0  0  0  0  0  0  0  0  0  0  0  0
   -0.0333   -1.3917    0.0000 C   0  0  0  0  0  0  0  0  0  0  0  0
    1.4292    2.1333    0.0000 C   0  0  0  0  0  0  0  0  0  0  0  0
  2  3  1  0  0  0  0
  3  8  1  0  0  0  0
  4 11  1  0  0  0  0
  5  1  1  0  0  0  0
  6  4  1  0  0  0  0
  7  2  1  0  0  0  0
  8  6  1  0  0  0  0
  9  1  2  0  0  0  0
 10  1  2  0  0  0  0
 11 15  2  0  0  0  0
 12  5  1  0  0  0  0
 13  2  2  0  0  0  0
 14  4  2  0  0  0  0
 15 18  1  0  0  0  0
 16 17  2  0  0  0  0
 17 12  1  0  0  0  0
 18 12  2  0  0  0  0
 19  1  1  0  0  0  0
 20  3  2  0  0  0  0
 21  7  1  0  0  0  0
 22  7  1  0  0  0  0
 23  5  1  0  0  0  0
 24  8  2  0  0  0  0
 25 23  1  0  0  0  0
 26 29  2  0  0  0  0
 27 22  1  0  0  0  0
 28 21  1  0  0  0  0
 29 24  1  0  0  0  0
 11 16  1  0  0  0  0
 20 26  1  0  0  0  0
 28 27  1  0  0  0  0
M  END
>  <ID> (9146543)
9146543

>  <Supplier> (9146543)
ChemBridge

>  <clogP> (9146543)
1.817000000000000e+000

>  <RB> (9146543)
4

>  <tPSA> (9146543)
8.679000000000002e+001

>  <Hacc> (9146543)
4

>  <Hdon> (9146543)
1

>  <LogSw> (9146543)
-3.781000000000000e+000

>  <Group> (9146543)
2

>  <Core> (9146543)
141

$$$$
7640664
  -ISIS-  03310818262D

 30 32  0  0  0  0  0  0  0  0999 V2000
    2.5625   -0.6125    0.0000 S   0  0  3  0  0  0  0  0  0  0  0  0
    6.0125   -8.5500    0.0000 C   0  0  0  0  0  0  0  0  0  0  0  0
    4.5625   -0.6125    0.0000 N   0  0  0  0  0  0  0  0  0  0  0  0
    2.5625   -2.6000    0.0000 C   0  0  0  0  0  0  0  0  0  0  0  0
    6.0125   -6.5625    0.0000 N   0  0  0  0  0  0  0  0  0  0  0  0
    8.2750  -11.4500    0.0000 O   0  0  0  0  0  0  0  0  0  0  0  0
   10.2000  -11.9500    0.0000 C   0  0  0  0  0  0  0  0  0  0  0  0
   10.7375  -13.8625    0.0000 C   0  0  0  0  0  0  0  0  0  0  0  0
    2.5500    1.3875    0.0000 O   0  0  0  0  0  0  0  0  0  0  0  0
    0.5625   -0.6000    0.0000 O   0  0  0  0  0  0  0  0  0  0  0  0
    4.2750   -3.5875    0.0000 C   0  0  0  0  0  0  0  0  0  0  0  0
    7.7500   -9.5250    0.0000 C   0  0  3  0  0  0  0  0  0  0  0  0
   12.6625  -14.3625    0.0000 C   0  0  0  0  0  0  0  0  0  0  0  0
    4.2875   -5.5750    0.0000 C   0  0  0  0  0  0  0  0  0  0  0  0
    4.0125   -8.5625    0.0000 O   0  0  0  0  0  0  0  0  0  0  0  0
   11.6125  -10.5125    0.0000 C   0  0  0  0  0  0  0  0  0  0  0  0
   14.0625  -12.9500    0.0000 C   0  0  0  0  0  0  0  0  0  0  0  0
    5.9625    0.8250    0.0000 C   0  0  0  0  0  0  0  0  0  0  0  0
    9.3250  -15.2875    0.0000 Cl  0  0  0  0  0  0  0  0  0  0  0  0
   13.5500  -11.0250    0.0000 C   0  0  0  0  0  0  0  0  0  0  0  0
   16.0000  -13.4750    0.0000 Cl  0  0  0  0  0  0  0  0  0  0  0  0
    0.8250   -3.5875    0.0000 C   0  0  0  0  0  0  0  0  0  0  0  0
    0.8250   -5.5750    0.0000 C   0  0  0  0  0  0  0  0  0  0  0  0
    2.5500   -6.5750    0.0000 C   0  0  0  0  0  0  0  0  0  0  0  0
    9.3250   -8.3000    0.0000 C   0  0  0  0  0  0  0  0  0  0  0  0
    5.4375    2.7375    0.0000 C   0  0  0  0  0  0  0  0  0  0  0  0
    7.9125    0.3125    0.0000 C   0  0  0  0  0  0  0  0  0  0  0  0
    9.3125    1.7375    0.0000 C   0  0  0  0  0  0  0  0  0  0  0  0
    6.8250    4.1500    0.0000 C   0  0  0  0  0  0  0  0  0  0  0  0
    8.7875    3.6750    0.0000 C   0  0  0  0  0  0  0  0  0  0  0  0
  2  5  1  0  0  0  0
  3  1  1  0  0  0  0
  4  1  1  0  0  0  0
  5 14  1  0  0  0  0
  6 12  1  0  0  0  0
  7  6  1  0  0  0  0
  8  7  2  0  0  0  0
  9  1  2  0  0  0  0
 10  1  2  0  0  0  0
 11  4  1  0  0  0  0
 12  2  1  0  0  0  0
 13  8  1  0  0  0  0
 14 11  2  0  0  0  0
 15  2  2  0  0  0  0
 16  7  1  0  0  0  0
 17 20  1  0  0  0  0
 18  3  1  0  0  0  0
 19  8  1  0  0  0  0
 20 16  2  0  0  0  0
 21 17  1  0  0  0  0
 22  4  2  0  0  0  0
 23 22  1  0  0  0  0
 24 23  2  0  0  0  0
 25 12  1  0  0  0  0
 26 18  1  0  0  0  0
 27 18  2  0  0  0  0
 28 27  1  0  0  0  0
 29 26  2  0  0  0  0
 30 28  2  0  0  0  0
 14 24  1  0  0  0  0
 30 29  1  0  0  0  0
 17 13  2  0  0  0  0
M  END
>  <ID> (7640664)
7640664

>  <Supplier> (7640664)
ChemBridge

>  <clogP> (7640664)
5.131000000000000e+000

>  <RB> (7640664)
6

>  <tPSA> (7640664)
8.450000000000003e+001

>  <Hacc> (7640664)
4

>  <Hdon> (7640664)
2

>  <LogSw> (7640664)
-7.608000000000000e+000

>  <Group> (7640664)
1

>  <Core> (7640664)
236

$$$$
7807592
  -ISIS-  03310818272D

 34 36  0  0  0  0  0  0  0  0999 V2000
    3.1250   -2.8167    0.0000 C   0  0  0  0  0  0  0  0  0  0  0  0
    4.5917   -0.7500    0.0000 C   0  0  0  0  0  0  0  0  0  0  0  0
  -14.7625    1.5458    0.0000 N   0  3  0  0  0  0  0  0  0  0  0  0
    0.5542   -2.8417    0.0000 N   0  0  0  0  0  0  0  0  0  0  0  0
    4.6167   -4.8625    0.0000 S   0  0  0  0  0  0  0  0  0  0  0  0
    7.0417   -4.0417    0.0000 C   0  0  0  0  0  0  0  0  0  0  0  0
  -12.2042    1.5458    0.0000 C   0  0  0  0  0  0  0  0  0  0  0  0
    7.0292   -1.5417    0.0000 C   0  0  0  0  0  0  0  0  0  0  0  0
   -0.7333   -0.6542    0.0000 C   0  0  0  0  0  0  0  0  0  0  0  0
    4.8000    1.8000    0.0000 C   0  0  0  0  0  0  0  0  0  0  0  0
  -10.9667   -0.6542    0.0000 C   0  0  0  0  0  0  0  0  0  0  0  0
   -7.0625   -2.9000    0.0000 C   0  0  0  0  0  0  0  0  0  0  0  0
   -8.3792   -0.6542    0.0000 C   0  0  0  0  0  0  0  0  0  0  0  0
   -4.5208   -2.8625    0.0000 N   0  0  0  0  0  0  0  0  0  0  0  0
   -3.2750   -0.6542    0.0000 N   0  0  0  0  0  0  0  0  0  0  0  0
  -16.0000    3.7500    0.0000 O   0  5  0  0  0  0  0  0  0  0  0  0
  -16.0000   -0.6542    0.0000 O   0  0  0  0  0  0  0  0  0  0  0  0
    0.5542    1.5375    0.0000 S   0  0  0  0  0  0  0  0  0  0  0  0
  -10.9667    3.7125    0.0000 C   0  0  0  0  0  0  0  0  0  0  0  0
    2.7250    3.2708    0.0000 O   0  0  0  0  0  0  0  0  0  0  0  0
   -8.3375   -5.0667    0.0000 O   0  0  0  0  0  0  0  0  0  0  0  0
   -7.1417    1.5458    0.0000 C   0  0  0  0  0  0  0  0  0  0  0  0
    9.1167   -5.5250    0.0000 C   0  0  0  0  0  0  0  0  0  0  0  0
   -8.4167    3.7125    0.0000 C   0  0  0  0  0  0  0  0  0  0  0  0
    7.1042    2.9083    0.0000 O   0  0  0  0  0  0  0  0  0  0  0  0
   11.4167   -4.4417    0.0000 C   0  0  0  0  0  0  0  0  0  0  0  0
  -12.2417    5.9042    0.0000 C   0  0  0  0  0  0  0  0  0  0  0  0
    9.1917    1.4375    0.0000 C   0  0  0  0  0  0  0  0  0  0  0  0
   13.4792   -5.9125    0.0000 C   0  0  0  0  0  0  0  0  0  0  0  0
   11.6167   -1.9375    0.0000 C   0  0  0  0  0  0  0  0  0  0  0  0
   11.4875    2.5083    0.0000 C   0  0  0  0  0  0  0  0  0  0  0  0
   15.7750   -4.8417    0.0000 C   0  0  0  0  0  0  0  0  0  0  0  0
   13.9042   -0.8667    0.0000 C   0  0  0  0  0  0  0  0  0  0  0  0
   16.0000   -2.3167    0.0000 C   0  0  0  0  0  0  0  0  0  0  0  0
  2  1  2  0  0  0  0
  3  7  1  0  0  0  0
  4  1  1  0  0  0  0
  5  1  1  0  0  0  0
  6  5  1  0  0  0  0
  7 11  1  0  0  0  0
  8  2  1  0  0  0  0
  9  4  1  0  0  0  0
 10  2  1  0  0  0  0
 11 13  2  0  0  0  0
 12 14  1  0  0  0  0
 13 12  1  0  0  0  0
 14 15  1  0  0  0  0
 15  9  1  0  0  0  0
 16  3  1  0  0  0  0
 17  3  2  0  0  0  0
 18  9  2  0  0  0  0
 19 24  1  0  0  0  0
 20 10  2  0  0  0  0
 21 12  2  0  0  0  0
 22 13  1  0  0  0  0
 23  6  1  0  0  0  0
 24 22  2  0  0  0  0
 25 10  1  0  0  0  0
 26 23  1  0  0  0  0
 27 19  1  0  0  0  0
 28 25  1  0  0  0  0
 29 26  2  0  0  0  0
 30 26  1  0  0  0  0
 31 28  1  0  0  0  0
 32 29  1  0  0  0  0
 33 30  2  0  0  0  0
 34 33  1  0  0  0  0
  8  6  2  0  0  0  0
 34 32  2  0  0  0  0
  7 19  2  0  0  0  0
M  CHG  2   3   1  16  -1
M  END
>  <ID> (7807592)
7807592

>  <Supplier> (7807592)
ChemBridge

>  <clogP> (7807592)
4.100000000000000e+000

>  <RB> (7807592)
6

>  <tPSA> (7807592)
1.226000000000000e+002

>  <Hacc> (7807592)
5

>  <Hdon> (7807592)
3

>  <LogSw> (7807592)
-6.725000000000000e+000

>  <Group> (7807592)
1

>  <Core> (7807592)
098

$$$$
5995648
  -ISIS-  03310818232D

 20 22  0  0  0  0  0  0  0  0999 V2000
   -0.5958   -4.3792    0.0000 C   0  0  0  0  0  0  0  0  0  0  0  0
    0.1000   -3.9542    0.0000 N   0  0  3  0  0  0  0  0  0  0  0  0
    1.5042   -3.1000    0.0000 N   0  0  3  0  0  0  0  0  0  0  0  0
   -0.5833   -5.0542    0.0000 C   0  0  0  0  0  0  0  0  0  0  0  0
   -1.3208   -5.3500    0.0000 O   0  0  0  0  0  0  0  0  0  0  0  0
    2.2292   -2.7000    0.0000 C   0  0  3  0  0  0  0  0  0  0  0  0
    0.0667   -3.1500    0.0000 C   0  0  0  0  0  0  0  0  0  0  0  0
    0.8500   -4.3500    0.0000 C   0  0  0  0  0  0  0  0  0  0  0  0
    1.5500   -3.9167    0.0000 C   0  0  0  0  0  0  0  0  0  0  0  0
    0.7792   -2.7000    0.0000 C   0  0  0  0  0  0  0  0  0  0  0  0
   -1.4958   -3.8500    0.0000 O   0  0  0  0  0  0  0  0  0  0  0  0
   -0.0708   -5.6542    0.0000 C   0  0  0  0  0  0  0  0  0  0  0  0
   -1.2208   -6.1542    0.0000 C   0  0  0  0  0  0  0  0  0  0  0  0
   -0.4708   -6.3500    0.0000 C   0  0  0  0  0  0  0  0  0  0  0  0
    3.1792   -3.2292    0.0000 C   0  0  0  0  0  0  0  0  0  0  0  0
    2.2292   -1.5542    0.0000 C   0  0  0  0  0  0  0  0  0  0  0  0
    3.1792   -1.0000    0.0000 C   0  0  0  0  0  0  0  0  0  0  0  0
    4.1292   -2.7000    0.0000 C   0  0  0  0  0  0  0  0  0  0  0  0
    4.1292   -1.5542    0.0000 C   0  0  3  0  0  0  0  0  0  0  0  0
    5.1000   -1.0000    0.0000 C   0  0  0  0  0  0  0  0  0  0  0  0
  2  1  1  0  0  0  0
  3  9  1  0  0  0  0
  4  1  1  0  0  0  0
  5  4  1  0  0  0  0
  6  3  1  0  0  0  0
  7  2  1  0  0  0  0
  8  2  1  0  0  0  0
  9  8  1  0  0  0  0
 10  7  1  0  0  0  0
 11  1  2  0  0  0  0
 12  4  2  0  0  0  0
 13  5  1  0  0  0  0
 14 12  1  0  0  0  0
 15  6  1  0  0  0  0
 16  6  1  0  0  0  0
 17 16  1  0  0  0  0
 18 15  1  0  0  0  0
 19 17  1  0  0  0  0
 20 19  1  0  0  0  0
 14 13  2  0  0  0  0
 10  3  1  0  0  0  0
 19 18  1  0  0  0  0
M  END
>  <ID> (5995648)
5995648

>  <Supplier> (5995648)
ChemBridge

>  <clogP> (5995648)
2.980000000000000e+000

>  <RB> (5995648)
2

>  <tPSA> (5995648)
3.669000000000000e+001

>  <Hacc> (5995648)
3

>  <Hdon> (5995648)
0

>  <LogSw> (5995648)
-3.761000000000000e+000

>  <Group> (5995648)
3

>  <Core> (5995648)
165

$$$$
7498524
  -ISIS-  03310818262D

 28 30  0  0  0  0  0  0  0  0999 V2000
    0.6792    0.5333    0.0000 N   0  0  3  0  0  0  0  0  0  0  0  0
    0.0417    1.0583    0.0000 C   0  0  0  0  0  0  0  0  0  0  0  0
    0.3542    1.8208    0.0000 N   0  0  0  0  0  0  0  0  0  0  0  0
    1.3667    0.9708    0.0000 C   0  0  0  0  0  0  0  0  0  0  0  0
    1.1792    1.7625    0.0000 N   0  0  0  0  0  0  0  0  0  0  0  0
    5.8292    4.2000    0.0000 N   0  3  0  0  0  0  0  0  0  0  0  0
    2.1417    0.6583    0.0000 S   0  0  0  0  0  0  0  0  0  0  0  0
   -0.7250    0.7750    0.0000 C   0  0  0  0  0  0  0  0  0  0  0  0
    5.4167    3.4958    0.0000 C   0  0  0  0  0  0  0  0  0  0  0  0
    3.3750    1.3625    0.0000 C   0  0  0  0  0  0  0  0  0  0  0  0
    6.6417    4.2042    0.0000 O   0  5  0  0  0  0  0  0  0  0  0  0
    5.4125    4.9042    0.0000 O   0  0  0  0  0  0  0  0  0  0  0  0
    4.1917    1.3625    0.0000 N   0  0  0  0  0  0  0  0  0  0  0  0
    2.9625    2.0708    0.0000 O   0  0  0  0  0  0  0  0  0  0  0  0
    0.6292   -0.2917    0.0000 C   0  0  0  0  0  0  0  0  0  0  0  0
    2.9667    0.6583    0.0000 C   0  0  0  0  0  0  0  0  0  0  0  0
    4.6000    3.4958    0.0000 C   0  0  0  0  0  0  0  0  0  0  0  0
    5.8250    2.7833    0.0000 C   0  0  0  0  0  0  0  0  0  0  0  0
   -1.3583    1.3000    0.0000 C   0  0  0  0  0  0  0  0  0  0  0  0
   -0.8708   -0.0292    0.0000 C   0  0  0  0  0  0  0  0  0  0  0  0
    4.5917    2.0833    0.0000 C   0  0  0  0  0  0  0  0  0  0  0  0
   -2.2708    0.2083    0.0000 C   0  0  0  0  0  0  0  0  0  0  0  0
   -3.0583   -0.0750    0.0000 N   0  0  0  0  0  0  0  0  0  0  0  0
    5.4167    2.0833    0.0000 C   0  0  0  0  0  0  0  0  0  0  0  0
    4.1875    2.7833    0.0000 C   0  0  0  0  0  0  0  0  0  0  0  0
   -1.6375   -0.3167    0.0000 C   0  0  0  0  0  0  0  0  0  0  0  0
   -2.1250    1.0208    0.0000 C   0  0  0  0  0  0  0  0  0  0  0  0
    0.0417   -0.8792    0.0000 C   0  0  0  0  0  0  0  0  0  0  0  0
  2  1  1  0  0  0  0
  3  2  2  0  0  0  0
  4  1  1  0  0  0  0
  5  4  2  0  0  0  0
  6  9  1  0  0  0  0
  7  4  1  0  0  0  0
  8  2  1  0  0  0  0
  9 17  1  0  0  0  0
 10 16  1  0  0  0  0
 11  6  1  0  0  0  0
 12  6  2  0  0  0  0
 13 10  1  0  0  0  0
 14 10  2  0  0  0  0
 15  1  1  0  0  0  0
 16  7  1  0  0  0  0
 17 25  2  0  0  0  0
 18 24  1  0  0  0  0
 19  8  2  0  0  0  0
 20  8  1  0  0  0  0
 21 13  1  0  0  0  0
 22 26  1  0  0  0  0
 23 22  1  0  0  0  0
 24 21  2  0  0  0  0
 25 21  1  0  0  0  0
 26 20  2  0  0  0  0
 27 19  1  0  0  0  0
 28 15  1  0  0  0  0
  3  5  1  0  0  0  0
 22 27  2  0  0  0  0
  9 18  2  0  0  0  0
M  CHG  2   6   1  11  -1
M  END
>  <ID> (7498524)
7498524

>  <Supplier> (7498524)
ChemBridge

>  <clogP> (7498524)
2.102000000000000e+000

>  <RB> (7498524)
5

>  <tPSA> (7498524)
1.289700000000000e+002

>  <Hacc> (7498524)
6

>  <Hdon> (7498524)
2

>  <LogSw> (7498524)
-5.116000000000000e+000

>  <Group> (7498524)
2

>  <Core> (7498524)
009

$$$$
7215779
  -ISIS-  03310818262D

 25 27  0  0  0  0  0  0  0  0999 V2000
    9.1750   -2.9792    0.0000 C   0  0  0  0  0  0  0  0  0  0  0  0
    8.4875   -2.5917    0.0000 C   0  0  0  0  0  0  0  0  0  0  0  0
    9.1792   -3.7625    0.0000 N   0  0  3  0  0  0  0  0  0  0  0  0
    7.8042   -2.9917    0.0000 C   0  0  0  0  0  0  0  0  0  0  0  0
    7.8125   -3.7792    0.0000 N   0  0  0  0  0  0  0  0  0  0  0  0
    7.1000   -4.1917    0.0000 C   0  0  0  0  0  0  0  0  0  0  0  0
    6.3792   -3.7792    0.0000 C   0  0  0  0  0  0  0  0  0  0  0  0
    5.6750   -4.1875    0.0000 C   0  0  0  0  0  0  0  0  0  0  0  0
    9.8542   -2.5792    0.0000 O   0  0  0  0  0  0  0  0  0  0  0  0
    7.1000   -5.0167    0.0000 O   0  0  0  0  0  0  0  0  0  0  0  0
    4.9625   -3.7792    0.0000 C   0  0  0  0  0  0  0  0  0  0  0  0
    3.5375   -2.9667    0.0000 C   0  0  0  0  0  0  0  0  0  0  0  0
    8.4792   -1.8042    0.0000 C   0  0  0  0  0  0  0  0  0  0  0  0
    2.8167   -2.5542    0.0000 F   0  0  0  0  0  0  0  0  0  0  0  0
    4.9625   -2.9542    0.0000 C   0  0  0  0  0  0  0  0  0  0  0  0
    4.2542   -4.1917    0.0000 C   0  0  0  0  0  0  0  0  0  0  0  0
    3.5417   -3.7917    0.0000 C   0  0  0  0  0  0  0  0  0  0  0  0
    4.2500   -2.5500    0.0000 C   0  0  0  0  0  0  0  0  0  0  0  0
    8.5417   -4.2292    0.0000 C   0  0  0  0  0  0  0  0  0  0  0  0
    9.8167   -4.2167    0.0000 C   0  0  0  0  0  0  0  0  0  0  0  0
    7.1167   -2.6042    0.0000 C   0  0  0  0  0  0  0  0  0  0  0  0
    7.8000   -1.4167    0.0000 C   0  0  0  0  0  0  0  0  0  0  0  0
    9.5792   -4.9667    0.0000 C   0  0  0  0  0  0  0  0  0  0  0  0
    8.7917   -4.9750    0.0000 C   0  0  0  0  0  0  0  0  0  0  0  0
    7.1167   -1.8167    0.0000 C   0  0  0  0  0  0  0  0  0  0  0  0
  2  1  1  0  0  0  0
  3  1  1  0  0  0  0
  4  2  1  0  0  0  0
  5  4  1  0  0  0  0
  6  5  1  0  0  0  0
  7  6  1  0  0  0  0
  8  7  2  0  0  0  0
  9  1  2  0  0  0  0
 10  6  2  0  0  0  0
 11  8  1  0  0  0  0
 12 17  1  0  0  0  0
 13  2  2  0  0  0  0
 14 12  1  0  0  0  0
 15 11  2  0  0  0  0
 16 11  1  0  0  0  0
 17 16  2  0  0  0  0
 18 15  1  0  0  0  0
 19  3  1  0  0  0  0
 20  3  1  0  0  0  0
 21  4  2  0  0  0  0
 22 13  1  0  0  0  0
 23 20  1  0  0  0  0
 24 19  1  0  0  0  0
 25 22  2  0  0  0  0
 24 23  1  0  0  0  0
 25 21  1  0  0  0  0
 18 12  2  0  0  0  0
M  END
>  <ID> (7215779)
7215779

>  <Supplier> (7215779)
ChemBridge

>  <clogP> (7215779)
3.370000000000000e+000

>  <RB> (7215779)
4

>  <tPSA> (7215779)
4.941000000000002e+001

>  <Hacc> (7215779)
2

>  <Hdon> (7215779)
1

>  <LogSw> (7215779)
-4.545000000000000e+000

>  <Group> (7215779)
2

>  <Core> (7215779)
141

$$$$
6026145
  -ISIS-  03310818232D

 27 30  0  0  0  0  0  0  0  0999 V2000
    0.2417   -1.7125    0.0000 C   0  0  0  0  0  0  0  0  0  0  0  0
   -0.1625   -2.3167    0.0000 N   0  0  0  0  0  0  0  0  0  0  0  0
    0.9917   -1.7125    0.0000 C   0  0  0  0  0  0  0  0  0  0  0  0
   -0.2083   -1.1042    0.0000 O   0  0  0  0  0  0  0  0  0  0  0  0
    1.3667   -2.3625    0.0000 C   0  0  0  0  0  0  0  0  0  0  0  0
   -0.9208   -2.0917    0.0000 C   0  0  0  0  0  0  0  0  0  0  0  0
   -0.9208   -1.3375    0.0000 C   0  0  0  0  0  0  0  0  0  0  0  0
    3.6167   -2.3625    0.0000 C   0  0  0  0  0  0  0  0  0  0  0  0
    2.1167   -2.3625    0.0000 C   0  0  0  0  0  0  0  0  0  0  0  0
    1.3667   -1.0625    0.0000 C   0  0  0  0  0  0  0  0  0  0  0  0
    4.3667   -2.3625    0.0000 C   0  0  0  0  0  0  0  0  0  0  0  0
    3.2417   -1.7125    0.0000 N   0  0  0  0  0  0  0  0  0  0  0  0
    4.8042   -1.7542    0.0000 C   0  0  0  0  0  0  0  0  0  0  0  0
    2.4917   -1.7125    0.0000 C   0  0  0  0  0  0  0  0  0  0  0  0
    3.2417   -3.0125    0.0000 O   0  0  0  0  0  0  0  0  0  0  0  0
    2.1167   -1.0625    0.0000 C   0  0  0  0  0  0  0  0  0  0  0  0
    0.9917   -3.0125    0.0000 O   0  0  0  0  0  0  0  0  0  0  0  0
    5.5542   -1.8292    0.0000 C   0  0  0  0  0  0  0  0  0  0  0  0
   -1.5750   -2.4667    0.0000 C   0  0  0  0  0  0  0  0  0  0  0  0
   -1.5750   -0.9542    0.0000 C   0  0  0  0  0  0  0  0  0  0  0  0
    5.8542   -2.5167    0.0000 C   0  0  0  0  0  0  0  0  0  0  0  0
    5.9917   -1.2292    0.0000 C   0  0  0  0  0  0  0  0  0  0  0  0
   -2.2208   -1.3375    0.0000 C   0  0  0  0  0  0  0  0  0  0  0  0
   -2.2208   -2.0917    0.0000 C   0  0  0  0  0  0  0  0  0  0  0  0
    6.7375   -1.3042    0.0000 C   0  0  0  0  0  0  0  0  0  0  0  0
    6.6042   -2.6000    0.0000 C   0  0  0  0  0  0  0  0  0  0  0  0
    7.0417   -1.9917    0.0000 C   0  0  0  0  0  0  0  0  0  0  0  0
  2  1  2  0  0  0  0
  3  1  1  0  0  0  0
  4  1  1  0  0  0  0
  5  3  1  0  0  0  0
  6  2  1  0  0  0  0
  7  4  1  0  0  0  0
  8 12  1  0  0  0  0
  9  5  2  0  0  0  0
 10  3  2  0  0  0  0
 11  8  1  0  0  0  0
 12 14  1  0  0  0  0
 13 11  2  0  0  0  0
 14 16  2  0  0  0  0
 15  8  2  0  0  0  0
 16 10  1  0  0  0  0
 17  5  1  0  0  0  0
 18 13  1  0  0  0  0
 19  6  1  0  0  0  0
 20  7  1  0  0  0  0
 21 18  1  0  0  0  0
 22 18  2  0  0  0  0
 23 20  2  0  0  0  0
 24 19  2  0  0  0  0
 25 22  1  0  0  0  0
 26 21  2  0  0  0  0
 27 25  2  0  0  0  0
  7  6  2  0  0  0  0
  9 14  1  0  0  0  0
 23 24  1  0  0  0  0
 26 27  1  0  0  0  0
M  END
>  <ID> (6026145)
6026145

>  <Supplier> (6026145)
ChemBridge

>  <clogP> (6026145)
4.450000000000000e+000

>  <RB> (6026145)
4

>  <tPSA> (6026145)
7.536000000000000e+001

>  <Hacc> (6026145)
4

>  <Hdon> (6026145)
2

>  <LogSw> (6026145)
-5.599000000000000e+000

>  <Group> (6026145)
2

>  <Core> (6026145)
068

$$$$
5633664
  -ISIS-  03310818222D

 26 27  0  0  0  0  0  0  0  0999 V2000
   -2.0333   -1.3042    0.0000 C   0  0  0  0  0  0  0  0  0  0  0  0
    1.1875    0.5333    0.0000 C   0  0  0  0  0  0  0  0  0  0  0  0
   -2.0125   -0.5875    0.0000 C   0  0  0  0  0  0  0  0  0  0  0  0
    1.8292    0.9125    0.0000 C   0  0  0  0  0  0  0  0  0  0  0  0
   -2.6708   -1.6875    0.0000 C   0  0  0  0  0  0  0  0  0  0  0  0
   -1.3958   -1.6667    0.0000 C   0  0  0  0  0  0  0  0  0  0  0  0
    0.5667    0.8958    0.0000 N   0  0  0  0  0  0  0  0  0  0  0  0
   -0.7500   -2.0500    0.0000 N   0  0  0  0  0  0  0  0  0  0  0  0
   -1.3708   -0.2042    0.0000 C   0  0  0  0  0  0  0  0  0  0  0  0
    2.4667    0.5708    0.0000 C   0  0  0  0  0  0  0  0  0  0  0  0
    1.1875   -0.2042    0.0000 O   0  0  0  0  0  0  0  0  0  0  0  0
   -3.2958   -1.3292    0.0000 O   0  0  0  0  0  0  0  0  0  0  0  0
   -1.3708    0.5333    0.0000 C   0  0  0  0  0  0  0  0  0  0  0  0
   -0.7125   -0.5667    0.0000 C   0  0  0  0  0  0  0  0  0  0  0  0
   -0.0958    0.5333    0.0000 C   0  0  0  0  0  0  0  0  0  0  0  0
   -2.6500   -0.2292    0.0000 O   0  0  0  0  0  0  0  0  0  0  0  0
   -2.6708   -2.4042    0.0000 O   0  0  0  0  0  0  0  0  0  0  0  0
    2.4667   -0.1667    0.0000 Cl  0  0  0  0  0  0  0  0  0  0  0  0
   -0.7333    0.8958    0.0000 C   0  0  0  0  0  0  0  0  0  0  0  0
   -0.0958   -0.2042    0.0000 C   0  0  0  0  0  0  0  0  0  0  0  0
    1.8292    1.6500    0.0000 C   0  0  0  0  0  0  0  0  0  0  0  0
    3.1042    0.9333    0.0000 C   0  0  0  0  0  0  0  0  0  0  0  0
   -2.0333   -2.7667    0.0000 C   0  0  0  0  0  0  0  0  0  0  0  0
    2.4667    2.0208    0.0000 C   0  0  0  0  0  0  0  0  0  0  0  0
   -2.0333   -3.5042    0.0000 C   0  0  0  0  0  0  0  0  0  0  0  0
    3.1042    1.6500    0.0000 C   0  0  0  0  0  0  0  0  0  0  0  0
  2  7  1  0  0  0  0
  3  1  2  0  0  0  0
  4  2  1  0  0  0  0
  5  1  1  0  0  0  0
  6  1  1  0  0  0  0
  7 15  1  0  0  0  0
  8  6  3  0  0  0  0
  9  3  1  0  0  0  0
 10  4  1  0  0  0  0
 11  2  2  0  0  0  0
 12  5  2  0  0  0  0
 13  9  1  0  0  0  0
 14  9  2  0  0  0  0
 15 20  2  0  0  0  0
 16  3  1  0  0  0  0
 17  5  1  0  0  0  0
 18 10  1  0  0  0  0
 19 13  2  0  0  0  0
 20 14  1  0  0  0  0
 21  4  2  0  0  0  0
 22 10  2  0  0  0  0
 23 17  1  0  0  0  0
 24 21  1  0  0  0  0
 25 23  1  0  0  0  0
 26 24  2  0  0  0  0
 19 15  1  0  0  0  0
 22 26  1  0  0  0  0
M  END
>  <ID> (5633664)
5633664

>  <Supplier> (5633664)
ChemBridge

>  <clogP> (5633664)
2.550000000000000e+000

>  <RB> (5633664)
4

>  <tPSA> (5633664)
9.942000000000000e+001

>  <Hacc> (5633664)
5

>  <Hdon> (5633664)
2

>  <LogSw> (5633664)
-4.346000000000000e+000

>  <Group> (5633664)
1

>  <Core> (5633664)
511

$$$$
6026147
  -ISIS-  03310818232D

 26 29  0  0  0  0  0  0  0  0999 V2000
    0.6500   -0.6542    0.0000 C   0  0  0  0  0  0  0  0  0  0  0  0
    0.2875   -1.2542    0.0000 C   0  0  0  0  0  0  0  0  0  0  0  0
    1.4042   -1.5000    0.0000 C   0  0  0  0  0  0  0  0  0  0  0  0
    0.7667   -1.8000    0.0000 S   0  0  0  0  0  0  0  0  0  0  0  0
    1.3292   -0.8000    0.0000 O   0  0  0  0  0  0  0  0  0  0  0  0
    0.2875   -0.0292    0.0000 C   0  0  0  0  0  0  0  0  0  0  0  0
   -1.8333   -1.2792    0.0000 C   0  0  0  0  0  0  0  0  0  0  0  0
   -0.4333   -1.2542    0.0000 C   0  0  0  0  0  0  0  0  0  0  0  0
   -0.7708   -0.6542    0.0000 C   0  0  0  0  0  0  0  0  0  0  0  0
   -1.4958   -0.6542    0.0000 O   0  0  0  0  0  0  0  0  0  0  0  0
   -0.4125   -0.0167    0.0000 C   0  0  0  0  0  0  0  0  0  0  0  0
    0.6500    0.5833    0.0000 C   0  0  0  0  0  0  0  0  0  0  0  0
    2.0292   -1.8375    0.0000 O   0  0  0  0  0  0  0  0  0  0  0  0
   -1.4958   -1.9000    0.0000 O   0  0  0  0  0  0  0  0  0  0  0  0
   -2.5333   -1.2542    0.0000 C   0  0  0  0  0  0  0  0  0  0  0  0
    1.3500    0.5833    0.0000 C   0  0  0  0  0  0  0  0  0  0  0  0
    0.2875    1.2000    0.0000 C   0  0  0  0  0  0  0  0  0  0  0  0
    1.6875    1.1833    0.0000 C   0  0  0  0  0  0  0  0  0  0  0  0
    0.6500    1.8208    0.0000 C   0  0  0  0  0  0  0  0  0  0  0  0
    1.3500    1.8000    0.0000 C   0  0  0  0  0  0  0  0  0  0  0  0
   -2.8958   -1.8792    0.0000 C   0  0  0  0  0  0  0  0  0  0  0  0
   -2.8958   -0.6375    0.0000 C   0  0  0  0  0  0  0  0  0  0  0  0
    1.7042    2.4208    0.0000 C   0  0  0  0  0  0  0  0  0  0  0  0
   -3.5958   -1.8792    0.0000 C   0  0  0  0  0  0  0  0  0  0  0  0
   -3.5958   -0.6375    0.0000 C   0  0  0  0  0  0  0  0  0  0  0  0
   -3.9583   -1.2542    0.0000 C   0  0  0  0  0  0  0  0  0  0  0  0
  2  1  2  0  0  0  0
  3  5  1  0  0  0  0
  4  2  1  0  0  0  0
  5  1  1  0  0  0  0
  6  1  1  0  0  0  0
  7 10  1  0  0  0  0
  8  2  1  0  0  0  0
  9 11  1  0  0  0  0
 10  9  1  0  0  0  0
 11  6  2  0  0  0  0
 12  6  1  0  0  0  0
 13  3  2  0  0  0  0
 14  7  2  0  0  0  0
 15  7  1  0  0  0  0
 16 12  2  0  0  0  0
 17 12  1  0  0  0  0
 18 16  1  0  0  0  0
 19 17  2  0  0  0  0
 20 19  1  0  0  0  0
 21 15  1  0  0  0  0
 22 15  2  0  0  0  0
 23 20  1  0  0  0  0
 24 21  2  0  0  0  0
 25 22  1  0  0  0  0
 26 25  2  0  0  0  0
  4  3  1  0  0  0  0
  9  8  2  0  0  0  0
 20 18  2  0  0  0  0
 26 24  1  0  0  0  0
M  END
>  <ID> (6026147)
6026147

>  <Supplier> (6026147)
ChemBridge

>  <clogP> (6026147)
5.790000000000000e+000

>  <RB> (6026147)
4

>  <tPSA> (6026147)
5.651000000000000e+001

>  <Hacc> (6026147)
4

>  <Hdon> (6026147)
0

>  <LogSw> (6026147)
-6.787000000000000e+000

>  <Group> (6026147)
2

>  <Core> (6026147)
266

$$$$
5633662
  -ISIS-  03310818222D

 26 28  0  0  0  0  0  0  0  0999 V2000
   -0.4458    0.0833    0.0000 N   0  0  3  0  0  0  0  0  0  0  0  0
   -0.7333   -0.6542    0.0000 C   0  0  0  0  0  0  0  0  0  0  0  0
   -1.0708    0.5708    0.0000 C   0  0  0  0  0  0  0  0  0  0  0  0
   -1.7333    0.1208    0.0000 C   0  0  0  0  0  0  0  0  0  0  0  0
   -1.5000   -0.6500    0.0000 S   0  0  0  0  0  0  0  0  0  0  0  0
    3.1000   -0.4500    0.0000 C   0  0  0  0  0  0  0  0  0  0  0  0
    3.5042   -0.9167    0.0000 N   0  0  0  0  0  0  0  0  0  0  0  0
    4.0500    0.3958    0.0000 C   0  0  0  0  0  0  0  0  0  0  0  0
    0.3542    0.3208    0.0000 C   0  0  0  0  0  0  0  0  0  0  0  0
   -2.5000    0.4833    0.0000 C   0  0  0  0  0  0  0  0  0  0  0  0
    2.3167   -0.6500    0.0000 N   0  0  0  0  0  0  0  0  0  0  0  0
    4.2542   -0.8042    0.0000 O   0  0  0  0  0  0  0  0  0  0  0  0
    1.7292   -0.0667    0.0000 C   0  0  0  0  0  0  0  0  0  0  0  0
    4.4542   -0.0875    0.0000 C   0  0  0  0  0  0  0  0  0  0  0  0
    0.9542   -0.2500    0.0000 C   0  0  0  0  0  0  0  0  0  0  0  0
   -0.2500   -1.3500    0.0000 S   0  0  0  0  0  0  0  0  0  0  0  0
   -1.0708    1.4208    0.0000 O   0  0  0  0  0  0  0  0  0  0  0  0
    1.9792    0.7458    0.0000 O   0  0  0  0  0  0  0  0  0  0  0  0
   -3.1833    0.0125    0.0000 C   0  0  0  0  0  0  0  0  0  0  0  0
   -4.5208   -0.9167    0.0000 C   0  0  0  0  0  0  0  0  0  0  0  0
   -5.1708   -1.4042    0.0000 Cl  0  0  0  0  0  0  0  0  0  0  0  0
   -3.9333    0.3500    0.0000 C   0  0  0  0  0  0  0  0  0  0  0  0
   -3.1000   -0.8000    0.0000 C   0  0  0  0  0  0  0  0  0  0  0  0
   -4.6000   -0.1042    0.0000 C   0  0  0  0  0  0  0  0  0  0  0  0
   -3.7958   -1.2500    0.0000 C   0  0  0  0  0  0  0  0  0  0  0  0
    5.2292    0.1708    0.0000 C   0  0  0  0  0  0  0  0  0  0  0  0
  2  1  1  0  0  0  0
  3  1  1  0  0  0  0
  4  3  1  0  0  0  0
  5  2  1  0  0  0  0
  6 11  1  0  0  0  0
  7  6  2  0  0  0  0
  8  6  1  0  0  0  0
  9  1  1  0  0  0  0
 10  4  2  0  0  0  0
 11 13  1  0  0  0  0
 12  7  1  0  0  0  0
 13 15  1  0  0  0  0
 14  8  2  0  0  0  0
 15  9  1  0  0  0  0
 16  2  2  0  0  0  0
 17  3  2  0  0  0  0
 18 13  2  0  0  0  0
 19 10  1  0  0  0  0
 20 25  2  0  0  0  0
 21 20  1  0  0  0  0
 22 19  1  0  0  0  0
 23 19  2  0  0  0  0
 24 22  2  0  0  0  0
 25 23  1  0  0  0  0
 26 14  1  0  0  0  0
  5  4  1  0  0  0  0
 20 24  1  0  0  0  0
 12 14  1  0  0  0  0
M  END
>  <ID> (5633662)
5633662

>  <Supplier> (5633662)
ChemBridge

>  <clogP> (5633662)
2.880000000000000e+000

>  <RB> (5633662)
5

>  <tPSA> (5633662)
7.544000000000000e+001

>  <Hacc> (5633662)
4

>  <Hdon> (5633662)
1

>  <LogSw> (5633662)
-4.633000000000000e+000

>  <Group> (5633662)
1

>  <Core> (5633662)
001

$$$$
7921722
  -ISIS-  03310818272D

 31 34  0  0  0  0  0  0  0  0999 V2000
    5.8250    2.2875    0.0000 C   0  0  0  0  0  0  0  0  0  0  0  0
    6.2000    2.9375    0.0000 N   0  0  0  0  0  0  0  0  0  0  0  0
    4.7000    2.9375    0.0000 C   0  0  0  0  0  0  0  0  0  0  0  0
    3.9500    2.9375    0.0000 C   0  0  0  0  0  0  0  0  0  0  0  0
    5.0750    2.2875    0.0000 C   0  0  0  0  0  0  0  0  0  0  0  0
    6.2000    1.6375    0.0000 C   0  0  0  0  0  0  0  0  0  0  0  0
    5.8250    3.5875    0.0000 C   0  0  0  0  0  0  0  0  0  0  0  0
    5.0750    3.5875    0.0000 C   0  0  0  0  0  0  0  0  0  0  0  0
    3.5750    3.5875    0.0000 N   0  0  0  0  0  0  0  0  0  0  0  0
    2.8250    3.5875    0.0000 C   0  0  0  0  0  0  0  0  0  0  0  0
    4.7000    1.6375    0.0000 C   0  0  0  0  0  0  0  0  0  0  0  0
    5.8250    0.9875    0.0000 C   0  0  0  0  0  0  0  0  0  0  0  0
    6.2000    4.2292    0.0000 C   0  0  0  0  0  0  0  0  0  0  0  0
    2.4417    4.2292    0.0000 C   0  0  0  0  0  0  0  0  0  0  0  0
    2.4417    2.9375    0.0000 C   0  0  0  0  0  0  0  0  0  0  0  0
    3.5750    2.2875    0.0000 O   0  0  0  0  0  0  0  0  0  0  0  0
    6.9500    4.2292    0.0000 N   0  0  0  0  0  0  0  0  0  0  0  0
    1.7000    2.9375    0.0000 C   0  0  0  0  0  0  0  0  0  0  0  0
    1.7000    4.2292    0.0000 C   0  0  0  0  0  0  0  0  0  0  0  0
    1.3250    3.5875    0.0000 C   0  0  0  0  0  0  0  0  0  0  0  0
    5.0750    0.9875    0.0000 C   0  0  0  0  0  0  0  0  0  0  0  0
    6.2000    0.3375    0.0000 Cl  0  0  0  0  0  0  0  0  0  0  0  0
    6.9500    1.6375    0.0000 C   0  0  0  0  0  0  0  0  0  0  0  0
    1.3250    4.8792    0.0000 O   0  0  0  0  0  0  0  0  0  0  0  0
    1.3250    2.2875    0.0000 O   0  0  0  0  0  0  0  0  0  0  0  0
    7.3250    4.8792    0.0000 C   0  0  0  0  0  0  0  0  0  0  0  0
    5.8250    4.8792    0.0000 C   0  0  0  0  0  0  0  0  0  0  0  0
    0.5750    4.8792    0.0000 C   0  0  0  0  0  0  0  0  0  0  0  0
    0.5750    2.2875    0.0000 C   0  0  0  0  0  0  0  0  0  0  0  0
    6.9500    5.5292    0.0000 C   0  0  0  0  0  0  0  0  0  0  0  0
    6.2000    5.5292    0.0000 C   0  0  0  0  0  0  0  0  0  0  0  0
  2  1  2  0  0  0  0
  3  5  2  0  0  0  0
  4  3  1  0  0  0  0
  5  1  1  0  0  0  0
  6  1  1  0  0  0  0
  7  2  1  0  0  0  0
  8  3  1  0  0  0  0
  9  4  1  0  0  0  0
 10  9  1  0  0  0  0
 11  5  1  0  0  0  0
 12  6  2  0  0  0  0
 13  7  1  0  0  0  0
 14 10  2  0  0  0  0
 15 10  1  0  0  0  0
 16  4  2  0  0  0  0
 17 13  1  0  0  0  0
 18 15  2  0  0  0  0
 19 14  1  0  0  0  0
 20 18  1  0  0  0  0
 21 12  1  0  0  0  0
 22 12  1  0  0  0  0
 23  6  1  0  0  0  0
 24 19  1  0  0  0  0
 25 18  1  0  0  0  0
 26 17  2  0  0  0  0
 27 13  2  0  0  0  0
 28 24  1  0  0  0  0
 29 25  1  0  0  0  0
 30 31  2  0  0  0  0
 31 27  1  0  0  0  0
 21 11  2  0  0  0  0
  7  8  2  0  0  0  0
 26 30  1  0  0  0  0
 19 20  2  0  0  0  0
M  END
>  <ID> (7921722)
7921722

>  <Supplier> (7921722)
ChemBridge

>  <clogP> (7921722)
5.340000000000000e+000

>  <RB> (7921722)
3

>  <tPSA> (7921722)
7.334000000000000e+001

>  <Hacc> (7921722)
5

>  <Hdon> (7921722)
1

>  <LogSw> (7921722)
-6.923000000000000e+000

>  <Group> (7921722)
1

>  <Core> (7921722)
120

$$$$
5149629
  -ISIS-  03310818212D

 21 23  0  0  0  0  0  0  0  0999 V2000
    0.3875    1.4125    0.0000 C   0  0  0  0  0  0  0  0  0  0  0  0
   -0.7208    0.7833    0.0000 N   0  0  0  0  0  0  0  0  0  0  0  0
    0.3875    2.6958    0.0000 N   0  0  0  0  0  0  0  0  0  0  0  0
   -1.8458    1.4125    0.0000 C   0  0  0  0  0  0  0  0  0  0  0  0
   -1.8458    2.6958    0.0000 C   0  0  0  0  0  0  0  0  0  0  0  0
   -2.9500    0.7833    0.0000 C   0  0  0  0  0  0  0  0  0  0  0  0
   -2.9500    3.3333    0.0000 C   0  0  0  0  0  0  0  0  0  0  0  0
   -4.0625    1.4125    0.0000 C   0  0  0  0  0  0  0  0  0  0  0  0
   -4.0625    2.6958    0.0000 C   0  0  0  0  0  0  0  0  0  0  0  0
    1.5667    0.7333    0.0000 S   0  0  0  0  0  0  0  0  0  0  0  0
    3.9042    0.7333    0.0000 C   0  0  0  0  0  0  0  0  0  0  0  0
    2.7375    1.4125    0.0000 C   0  0  0  0  0  0  0  0  0  0  0  0
    5.0875    1.4125    0.0000 O   0  0  0  0  0  0  0  0  0  0  0  0
    3.8875   -0.6292    0.0000 C   0  0  0  0  0  0  0  0  0  0  0  0
   -5.2708    3.3708    0.0000 C   0  0  0  0  0  0  0  0  0  0  0  0
   -5.2708    0.7500    0.0000 C   0  0  0  0  0  0  0  0  0  0  0  0
    5.0792   -1.3292    0.0000 C   0  0  0  0  0  0  0  0  0  0  0  0
    2.7000   -1.3000    0.0000 C   0  0  0  0  0  0  0  0  0  0  0  0
    2.7000   -2.6667    0.0000 C   0  0  0  0  0  0  0  0  0  0  0  0
    5.0542   -2.6875    0.0000 C   0  0  0  0  0  0  0  0  0  0  0  0
    3.8792   -3.3667    0.0000 C   0  0  0  0  0  0  0  0  0  0  0  0
  2  1  2  0  0  0  0
  3  1  1  0  0  0  0
  4  2  1  0  0  0  0
  5  3  1  0  0  0  0
  6  4  1  0  0  0  0
  7  5  1  0  0  0  0
  8  6  2  0  0  0  0
  9  7  2  0  0  0  0
 10  1  1  0  0  0  0
 11 12  1  0  0  0  0
 12 10  1  0  0  0  0
 13 11  2  0  0  0  0
 14 11  1  0  0  0  0
 15  9  1  0  0  0  0
 16  8  1  0  0  0  0
 17 14  2  0  0  0  0
 18 14  1  0  0  0  0
 19 18  2  0  0  0  0
 20 17  1  0  0  0  0
 21 19  1  0  0  0  0
  5  4  2  0  0  0  0
  9  8  1  0  0  0  0
 20 21  2  0  0  0  0
M  END
>  <ID> (5149629)
5149629

>  <Supplier> (5149629)
ChemBridge

>  <clogP> (5149629)
4.430000000000002e+000

>  <RB> (5149629)
4

>  <tPSA> (5149629)
4.575000000000000e+001

>  <Hacc> (5149629)
2

>  <Hdon> (5149629)
1

>  <LogSw> (5149629)
-5.145000000000000e+000

>  <Group> (5149629)
2

>  <Core> (5149629)
031

$$$$
7405551
  -ISIS-  03310818262D

 33 36  0  0  0  0  0  0  0  0999 V2000
    6.3417   -3.4250    0.0000 N   0  0  3  0  0  0  0  0  0  0  0  0
    8.8625   -4.3125    0.0000 S   0  0  3  0  0  0  0  0  0  0  0  0
    5.8125   -3.6667    0.0000 C   0  0  0  0  0  0  0  0  0  0  0  0
    6.2792   -2.8417    0.0000 C   0  0  0  0  0  0  0  0  0  0  0  0
    9.3750   -4.0250    0.0000 N   0  0  0  0  0  0  0  0  0  0  0  0
    5.4167   -3.2292    0.0000 C   0  0  0  0  0  0  0  0  0  0  0  0
    5.7042   -2.7167    0.0000 C   0  0  0  0  0  0  0  0  0  0  0  0
    9.3792   -3.4417    0.0000 C   0  0  0  0  0  0  0  0  0  0  0  0
    8.3542   -4.6000    0.0000 C   0  0  0  0  0  0  0  0  0  0  0  0
    8.5792   -3.8042    0.0000 O   0  0  0  0  0  0  0  0  0  0  0  0
    9.1542   -4.8167    0.0000 O   0  0  0  0  0  0  0  0  0  0  0  0
    6.7042   -2.4417    0.0000 O   0  0  0  0  0  0  0  0  0  0  0  0
    5.7000   -4.2417    0.0000 O   0  0  0  0  0  0  0  0  0  0  0  0
    9.8875   -3.1542    0.0000 N   0  0  0  0  0  0  0  0  0  0  0  0
    8.8792   -3.1500    0.0000 N   0  0  0  0  0  0  0  0  0  0  0  0
    6.3375   -5.1667    0.0000 C   0  0  0  0  0  0  0  0  0  0  0  0
    6.8417   -5.4667    0.0000 N   0  0  0  0  0  0  0  0  0  0  0  0
    5.8250   -5.4625    0.0000 O   0  0  0  0  0  0  0  0  0  0  0  0
    6.8542   -3.7167    0.0000 C   0  0  0  0  0  0  0  0  0  0  0  0
    7.8542   -4.3042    0.0000 C   0  0  0  0  0  0  0  0  0  0  0  0
    8.3542   -5.1792    0.0000 C   0  0  0  0  0  0  0  0  0  0  0  0
    7.3500   -5.1750    0.0000 C   0  0  0  0  0  0  0  0  0  0  0  0
    7.3500   -4.5917    0.0000 C   0  0  0  0  0  0  0  0  0  0  0  0
    7.8500   -5.4667    0.0000 C   0  0  0  0  0  0  0  0  0  0  0  0
    5.4125   -2.2125    0.0000 C   0  0  0  0  0  0  0  0  0  0  0  0
    4.8292   -3.2292    0.0000 C   0  0  0  0  0  0  0  0  0  0  0  0
    9.3917   -2.2792    0.0000 C   0  0  0  0  0  0  0  0  0  0  0  0
    6.8542   -4.2917    0.0000 C   0  0  0  0  0  0  0  0  0  0  0  0
    8.8875   -2.5625    0.0000 C   0  0  0  0  0  0  0  0  0  0  0  0
    9.8917   -2.5750    0.0000 C   0  0  0  0  0  0  0  0  0  0  0  0
    6.3417   -4.5875    0.0000 C   0  0  0  0  0  0  0  0  0  0  0  0
    4.8167   -2.2167    0.0000 C   0  0  0  0  0  0  0  0  0  0  0  0
    4.5375   -2.7167    0.0000 C   0  0  0  0  0  0  0  0  0  0  0  0
  2  9  1  0  0  0  0
  3  1  1  0  0  0  0
  4  1  1  0  0  0  0
  5  2  1  0  0  0  0
  6  3  1  0  0  0  0
  7  4  1  0  0  0  0
  8  5  1  0  0  0  0
  9 21  2  0  0  0  0
 10  2  2  0  0  0  0
 11  2  2  0  0  0  0
 12  4  2  0  0  0  0
 13  3  2  0  0  0  0
 14  8  2  0  0  0  0
 15  8  1  0  0  0  0
 16 31  1  0  0  0  0
 17 16  1  0  0  0  0
 18 16  2  0  0  0  0
 19  1  1  0  0  0  0
 20 23  2  0  0  0  0
 21 24  1  0  0  0  0
 22 17  1  0  0  0  0
 23 22  1  0  0  0  0
 24 22  2  0  0  0  0
 25  7  1  0  0  0  0
 26  6  1  0  0  0  0
 27 29  1  0  0  0  0
 28 19  1  0  0  0  0
 29 15  2  0  0  0  0
 30 14  1  0  0  0  0
 31 28  1  0  0  0  0
 32 25  2  0  0  0  0
 33 26  2  0  0  0  0
  6  7  2  0  0  0  0
 32 33  1  0  0  0  0
 20  9  1  0  0  0  0
 30 27  2  0  0  0  0
M  END
>  <ID> (7405551)
7405551

>  <Supplier> (7405551)
ChemBridge

>  <clogP> (7405551)
2.050000000000000e+000

>  <RB> (7405551)
7

>  <tPSA> (7405551)
1.384300000000000e+002

>  <Hacc> (7405551)
7

>  <Hdon> (7405551)
2

>  <LogSw> (7405551)
-4.339000000000000e+000

>  <Group> (7405551)
3

>  <Core> (7405551)
234

$$$$
7921721
  -ISIS-  03310818272D

 27 30  0  0  0  0  0  0  0  0999 V2000
    3.4875    2.5333    0.0000 C   0  0  0  0  0  0  0  0  0  0  0  0
    4.7875    2.5333    0.0000 C   0  0  0  0  0  0  0  0  0  0  0  0
    2.8375    2.1583    0.0000 C   0  0  0  0  0  0  0  0  0  0  0  0
    4.7875    3.2833    0.0000 N   0  0  0  0  0  0  0  0  0  0  0  0
    3.4875    3.2833    0.0000 C   0  0  0  0  0  0  0  0  0  0  0  0
    4.1375    2.1583    0.0000 C   0  0  0  0  0  0  0  0  0  0  0  0
    4.1375    3.6583    0.0000 C   0  0  0  0  0  0  0  0  0  0  0  0
    2.8375    1.4083    0.0000 N   0  0  0  0  0  0  0  0  0  0  0  0
    5.4375    2.1583    0.0000 C   0  0  0  0  0  0  0  0  0  0  0  0
    2.8375    3.6583    0.0000 C   0  0  0  0  0  0  0  0  0  0  0  0
    2.1875    2.5333    0.0000 O   0  0  0  0  0  0  0  0  0  0  0  0
    0.8875    0.2833    0.0000 N   0  0  0  0  0  0  0  0  0  0  0  0
    4.1375    4.4000    0.0000 C   0  0  0  0  0  0  0  0  0  0  0  0
    5.4375    1.4083    0.0000 C   0  0  0  0  0  0  0  0  0  0  0  0
    2.1875    1.0333    0.0000 C   0  0  0  0  0  0  0  0  0  0  0  0
    2.8375    4.4000    0.0000 C   0  0  0  0  0  0  0  0  0  0  0  0
    3.4875    4.7750    0.0000 C   0  0  0  0  0  0  0  0  0  0  0  0
    2.1875    4.7750    0.0000 Cl  0  0  0  0  0  0  0  0  0  0  0  0
    2.1875    0.2833    0.0000 C   0  0  0  0  0  0  0  0  0  0  0  0
    1.5375    1.4083    0.0000 C   0  0  0  0  0  0  0  0  0  0  0  0
    1.5375   -0.0917    0.0000 C   0  0  0  0  0  0  0  0  0  0  0  0
    0.8875    1.0333    0.0000 C   0  0  0  0  0  0  0  0  0  0  0  0
    6.0875    2.5333    0.0000 C   0  0  0  0  0  0  0  0  0  0  0  0
    4.7875    1.0333    0.0000 C   0  0  0  0  0  0  0  0  0  0  0  0
    6.0875    1.0333    0.0000 C   0  0  0  0  0  0  0  0  0  0  0  0
    6.7292    2.1583    0.0000 C   0  0  0  0  0  0  0  0  0  0  0  0
    6.7292    1.4083    0.0000 C   0  0  0  0  0  0  0  0  0  0  0  0
  2  6  2  0  0  0  0
  3  1  1  0  0  0  0
  4  2  1  0  0  0  0
  5  1  2  0  0  0  0
  6  1  1  0  0  0  0
  7  5  1  0  0  0  0
  8  3  1  0  0  0  0
  9  2  1  0  0  0  0
 10  5  1  0  0  0  0
 11  3  2  0  0  0  0
 12 22  1  0  0  0  0
 13  7  1  0  0  0  0
 14  9  1  0  0  0  0
 15  8  1  0  0  0  0
 16 10  2  0  0  0  0
 17 16  1  0  0  0  0
 18 16  1  0  0  0  0
 19 15  2  0  0  0  0
 20 15  1  0  0  0  0
 21 19  1  0  0  0  0
 22 20  2  0  0  0  0
 23  9  2  0  0  0  0
 24 14  1  0  0  0  0
 25 14  2  0  0  0  0
 26 23  1  0  0  0  0
 27 26  2  0  0  0  0
  4  7  2  0  0  0  0
 17 13  2  0  0  0  0
 12 21  2  0  0  0  0
 25 27  1  0  0  0  0
M  END
>  <ID> (7921721)
7921721

>  <Supplier> (7921721)
ChemBridge

>  <clogP> (7921721)
5.230000000000000e+000

>  <RB> (7921721)
3

>  <tPSA> (7921721)
5.488000000000000e+001

>  <Hacc> (7921721)
3

>  <Hdon> (7921721)
1

>  <LogSw> (7921721)
-6.392000000000000e+000

>  <Group> (7921721)
1

>  <Core> (7921721)
120

$$$$
7954758
  -ISIS-  03310818272D

 22 23  0  0  0  0  0  0  0  0999 V2000
    9.7750    1.7875    0.0000 C   0  0  0  0  0  0  0  0  0  0  0  0
   10.4250    1.4125    0.0000 C   0  0  0  0  0  0  0  0  0  0  0  0
    9.1250    1.4125    0.0000 N   0  0  0  0  0  0  0  0  0  0  0  0
   11.0750    1.7875    0.0000 N   0  0  0  0  0  0  0  0  0  0  0  0
    9.7750    2.5375    0.0000 S   0  0  0  0  0  0  0  0  0  0  0  0
    8.4792    1.7875    0.0000 C   0  0  3  0  0  0  0  0  0  0  0  0
   10.4250    0.6625    0.0000 O   0  0  0  0  0  0  0  0  0  0  0  0
    7.8292    1.4125    0.0000 C   0  0  0  0  0  0  0  0  0  0  0  0
   11.7250    1.4125    0.0000 C   0  0  0  0  0  0  0  0  0  0  0  0
   13.0250    0.6625    0.0000 C   0  0  0  0  0  0  0  0  0  0  0  0
   12.3750    1.7875    0.0000 C   0  0  0  0  0  0  0  0  0  0  0  0
   11.7250    0.6625    0.0000 C   0  0  0  0  0  0  0  0  0  0  0  0
   13.0250    1.4125    0.0000 C   0  0  0  0  0  0  0  0  0  0  0  0
   12.3750    0.2875    0.0000 C   0  0  0  0  0  0  0  0  0  0  0  0
   13.6750    0.2875    0.0000 O   0  0  0  0  0  0  0  0  0  0  0  0
    8.4792    2.5375    0.0000 C   0  0  0  0  0  0  0  0  0  0  0  0
    7.1792    1.7875    0.0000 C   0  0  0  0  0  0  0  0  0  0  0  0
    7.8292    0.6625    0.0000 C   0  0  0  0  0  0  0  0  0  0  0  0
   13.6750   -0.4625    0.0000 C   0  0  0  0  0  0  0  0  0  0  0  0
    7.1792    0.2875    0.0000 C   0  0  0  0  0  0  0  0  0  0  0  0
    6.5292    1.4125    0.0000 C   0  0  0  0  0  0  0  0  0  0  0  0
    6.5292    0.6625    0.0000 C   0  0  0  0  0  0  0  0  0  0  0  0
  2  1  1  0  0  0  0
  3  1  1  0  0  0  0
  4  2  1  0  0  0  0
  5  1  2  0  0  0  0
  6  3  1  0  0  0  0
  7  2  2  0  0  0  0
  8  6  1  0  0  0  0
  9  4  1  0  0  0  0
 10 14  2  0  0  0  0
 11  9  1  0  0  0  0
 12  9  2  0  0  0  0
 13 11  2  0  0  0  0
 14 12  1  0  0  0  0
 15 10  1  0  0  0  0
 16  6  1  0  0  0  0
 17  8  2  0  0  0  0
 18  8  1  0  0  0  0
 19 15  1  0  0  0  0
 20 18  2  0  0  0  0
 21 17  1  0  0  0  0
 22 20  1  0  0  0  0
 10 13  1  0  0  0  0
 21 22  2  0  0  0  0
M  END
>  <ID> (7954758)
7954758

>  <Supplier> (7954758)
ChemBridge

>  <clogP> (7954758)
2.950000000000000e+000

>  <RB> (7954758)
4

>  <tPSA> (7954758)
5.036000000000001e+001

>  <Hacc> (7954758)
2

>  <Hdon> (7954758)
2

>  <LogSw> (7954758)
-4.012000000000000e+000

>  <Group> (7954758)
1

>  <Core> (7954758)
482

$$$$
7516601
  -ISIS-  03310818262D

 23 26  0  0  0  0  0  0  0  0999 V2000
   -1.0125    0.8333    0.0000 O   0  0  0  0  0  0  0  0  0  0  0  0
   -0.4458    1.6333    0.0000 C   0  0  0  0  0  0  0  0  0  0  0  0
   -0.9833    2.4458    0.0000 N   0  0  0  0  0  0  0  0  0  0  0  0
   -1.9458    2.1458    0.0000 N   0  0  0  0  0  0  0  0  0  0  0  0
   -2.8333   -0.3292    0.0000 C   0  0  0  0  0  0  0  0  0  0  0  0
   -1.9500    1.1500    0.0000 C   0  0  0  0  0  0  0  0  0  0  0  0
   -2.3458   -1.8500    0.0000 N   0  0  0  0  0  0  0  0  0  0  0  0
   -2.0500   -0.8667    0.0000 C   0  0  0  0  0  0  0  0  0  0  0  0
   -3.6333   -0.9042    0.0000 C   0  0  0  0  0  0  0  0  0  0  0  0
   -2.8208    0.6500    0.0000 C   0  0  0  0  0  0  0  0  0  0  0  0
   -3.3208   -1.8500    0.0000 C   0  0  0  0  0  0  0  0  0  0  0  0
    0.5375    1.5958    0.0000 S   0  0  0  0  0  0  0  0  0  0  0  0
    1.0292    0.7208    0.0000 C   0  0  0  0  0  0  0  0  0  0  0  0
    2.0167    0.7125    0.0000 C   0  0  0  0  0  0  0  0  0  0  0  0
   -4.5833   -0.7000    0.0000 C   0  0  0  0  0  0  0  0  0  0  0  0
   -3.9833   -2.5667    0.0000 C   0  0  0  0  0  0  0  0  0  0  0  0
    2.5000   -0.1542    0.0000 C   0  0  0  0  0  0  0  0  0  0  0  0
    2.5292    1.5500    0.0000 C   0  0  0  0  0  0  0  0  0  0  0  0
   -5.2708   -1.4375    0.0000 C   0  0  0  0  0  0  0  0  0  0  0  0
   -4.9583   -2.3667    0.0000 C   0  0  0  0  0  0  0  0  0  0  0  0
    3.4875   -0.1875    0.0000 C   0  0  0  0  0  0  0  0  0  0  0  0
    3.5167    1.5458    0.0000 C   0  0  0  0  0  0  0  0  0  0  0  0
    4.0000    0.6625    0.0000 C   0  0  0  0  0  0  0  0  0  0  0  0
  2  1  1  0  0  0  0
  3  2  2  0  0  0  0
  4  6  2  0  0  0  0
  5 10  1  0  0  0  0
  6  1  1  0  0  0  0
  7  8  1  0  0  0  0
  8  5  2  0  0  0  0
  9  5  1  0  0  0  0
 10  6  1  0  0  0  0
 11  9  2  0  0  0  0
 12  2  1  0  0  0  0
 13 12  1  0  0  0  0
 14 13  1  0  0  0  0
 15  9  1  0  0  0  0
 16 11  1  0  0  0  0
 17 14  2  0  0  0  0
 18 14  1  0  0  0  0
 19 15  2  0  0  0  0
 20 19  1  0  0  0  0
 21 17  1  0  0  0  0
 22 18  2  0  0  0  0
 23 22  1  0  0  0  0
  3  4  1  0  0  0  0
  7 11  1  0  0  0  0
 20 16  2  0  0  0  0
 23 21  2  0  0  0  0
M  END
>  <ID> (7516601)
7516601

>  <Supplier> (7516601)
ChemBridge

>  <clogP> (7516601)
2.668000000000000e+000

>  <RB> (7516601)
5

>  <tPSA> (7516601)
5.471000000000002e+001

>  <Hacc> (7516601)
3

>  <Hdon> (7516601)
1

>  <LogSw> (7516601)
-4.971000000000002e+000

>  <Group> (7516601)
3

>  <Core> (7516601)
033

$$$$
7954756
  -ISIS-  03310818272D

 29 31  0  0  0  0  0  0  0  0999 V2000
    5.8167    2.2333    0.0000 S   0  0  3  0  0  0  0  0  0  0  0  0
    5.8167    2.9833    0.0000 N   0  0  3  0  0  0  0  0  0  0  0  0
    5.1667    3.3583    0.0000 C   0  0  0  0  0  0  0  0  0  0  0  0
    6.4667    3.3583    0.0000 C   0  0  0  0  0  0  0  0  0  0  0  0
    4.5917    2.8750    0.0000 C   0  0  0  0  0  0  0  0  0  0  0  0
    3.8917    3.1333    0.0000 N   0  0  3  0  0  0  0  0  0  0  0  0
    2.4792    3.6458    0.0000 N   0  0  3  0  0  0  0  0  0  0  0  0
    6.4667    4.0917    0.0000 C   0  0  0  0  0  0  0  0  0  0  0  0
    1.7792    3.9000    0.0000 C   0  0  0  0  0  0  0  0  0  0  0  0
    7.1167    2.9833    0.0000 C   0  0  0  0  0  0  0  0  0  0  0  0
    7.1167    4.4667    0.0000 C   0  0  0  0  0  0  0  0  0  0  0  0
    5.0917    2.0375    0.0000 O   0  0  0  0  0  0  0  0  0  0  0  0
    6.5667    2.2958    0.0000 O   0  0  0  0  0  0  0  0  0  0  0  0
    1.6417    4.6292    0.0000 C   0  0  0  0  0  0  0  0  0  0  0  0
    3.3167    2.6500    0.0000 C   0  0  0  0  0  0  0  0  0  0  0  0
    3.7625    3.8708    0.0000 C   0  0  0  0  0  0  0  0  0  0  0  0
    2.6125    2.9083    0.0000 C   0  0  0  0  0  0  0  0  0  0  0  0
    3.0542    4.1167    0.0000 C   0  0  0  0  0  0  0  0  0  0  0  0
    4.6875    2.3583    0.0000 O   0  0  0  0  0  0  0  0  0  0  0  0
    7.7667    4.0917    0.0000 C   0  0  0  0  0  0  0  0  0  0  0  0
    5.9500    1.4958    0.0000 C   0  0  0  0  0  0  0  0  0  0  0  0
    5.8167    4.4667    0.0000 Cl  0  0  0  0  0  0  0  0  0  0  0  0
    0.9417    4.8917    0.0000 C   0  0  0  0  0  0  0  0  0  0  0  0
    7.7667    3.3583    0.0000 C   0  0  0  0  0  0  0  0  0  0  0  0
    8.4167    4.4667    0.0000 Cl  0  0  0  0  0  0  0  0  0  0  0  0
    0.8125    5.6292    0.0000 Cl  0  0  0  0  0  0  0  0  0  0  0  0
    1.2042    3.4208    0.0000 C   0  0  0  0  0  0  0  0  0  0  0  0
    0.5000    3.6750    0.0000 C   0  0  0  0  0  0  0  0  0  0  0  0
    0.3667    4.4042    0.0000 C   0  0  0  0  0  0  0  0  0  0  0  0
  2  1  1  0  0  0  0
  3  2  1  0  0  0  0
  4  2  1  0  0  0  0
  5  3  1  0  0  0  0
  6  5  1  0  0  0  0
  7 18  1  0  0  0  0
  8  4  1  0  0  0  0
  9  7  1  0  0  0  0
 10  4  2  0  0  0  0
 11  8  2  0  0  0  0
 12  1  2  0  0  0  0
 13  1  2  0  0  0  0
 14  9  2  0  0  0  0
 15  6  1  0  0  0  0
 16  6  1  0  0  0  0
 17 15  1  0  0  0  0
 18 16  1  0  0  0  0
 19  5  2  0  0  0  0
 20 24  2  0  0  0  0
 21  1  1  0  0  0  0
 22  8  1  0  0  0  0
 23 14  1  0  0  0  0
 24 10  1  0  0  0  0
 25 20  1  0  0  0  0
 26 23  1  0  0  0  0
 27  9  1  0  0  0  0
 28 27  2  0  0  0  0
 29 28  1  0  0  0  0
 11 20  1  0  0  0  0
 17  7  1  0  0  0  0
 29 23  2  0  0  0  0
M  END
>  <ID> (7954756)
7954756

>  <Supplier> (7954756)
ChemBridge

>  <clogP> (7954756)
3.555000000000000e+000

>  <RB> (7954756)
4

>  <tPSA> (7954756)
6.093000000000000e+001

>  <Hacc> (7954756)
3

>  <Hdon> (7954756)
0

>  <LogSw> (7954756)
-5.711000000000000e+000

>  <Group> (7954756)
1

>  <Core> (7954756)
554

$$$$
7954754
  -ISIS-  03310818272D

 28 30  0  0  0  0  0  0  0  0999 V2000
    5.5917    1.6250    0.0000 C   0  0  0  0  0  0  0  0  0  0  0  0
    5.5917    2.3750    0.0000 C   0  0  0  0  0  0  0  0  0  0  0  0
    4.9417    1.2500    0.0000 N   0  0  3  0  0  0  0  0  0  0  0  0
   10.1417    2.7500    0.0000 C   0  0  0  0  0  0  0  0  0  0  0  0
    6.2417    2.7500    0.0000 C   0  0  0  0  0  0  0  0  0  0  0  0
    6.8917    2.3750    0.0000 N   0  0  0  0  0  0  0  0  0  0  0  0
    7.5417    2.7500    0.0000 C   0  0  0  0  0  0  0  0  0  0  0  0
    6.2417    1.2500    0.0000 O   0  0  0  0  0  0  0  0  0  0  0  0
   10.7917    2.3750    0.0000 C   0  0  0  0  0  0  0  0  0  0  0  0
   10.1417    3.5000    0.0000 C   0  0  0  0  0  0  0  0  0  0  0  0
    7.5417    3.5000    0.0000 O   0  0  0  0  0  0  0  0  0  0  0  0
    3.6417    0.5000    0.0000 O   0  0  0  0  0  0  0  0  0  0  0  0
    8.8417    2.7500    0.0000 S   0  0  0  0  0  0  0  0  0  0  0  0
    9.4917    2.3750    0.0000 C   0  0  0  0  0  0  0  0  0  0  0  0
   10.7917    1.6250    0.0000 F   0  0  0  0  0  0  0  0  0  0  0  0
    9.4917    3.8750    0.0000 Cl  0  0  0  0  0  0  0  0  0  0  0  0
    4.9417    2.7500    0.0000 C   0  0  0  0  0  0  0  0  0  0  0  0
    8.1917    2.3750    0.0000 C   0  0  0  0  0  0  0  0  0  0  0  0
    4.9417    0.5000    0.0000 C   0  0  0  0  0  0  0  0  0  0  0  0
    4.2917    1.6250    0.0000 C   0  0  0  0  0  0  0  0  0  0  0  0
    6.2417    3.5000    0.0000 C   0  0  0  0  0  0  0  0  0  0  0  0
   11.4417    3.5000    0.0000 C   0  0  0  0  0  0  0  0  0  0  0  0
   10.7917    3.8750    0.0000 C   0  0  0  0  0  0  0  0  0  0  0  0
   11.4417    2.7500    0.0000 C   0  0  0  0  0  0  0  0  0  0  0  0
    4.2917    0.1250    0.0000 C   0  0  0  0  0  0  0  0  0  0  0  0
    3.6417    1.2500    0.0000 C   0  0  0  0  0  0  0  0  0  0  0  0
    4.9417    3.5000    0.0000 C   0  0  0  0  0  0  0  0  0  0  0  0
    5.5917    3.8750    0.0000 C   0  0  0  0  0  0  0  0  0  0  0  0
  2  1  1  0  0  0  0
  3  1  1  0  0  0  0
  4 14  1  0  0  0  0
  5  2  1  0  0  0  0
  6  5  1  0  0  0  0
  7  6  1  0  0  0  0
  8  1  2  0  0  0  0
  9  4  1  0  0  0  0
 10  4  2  0  0  0  0
 11  7  2  0  0  0  0
 12 26  1  0  0  0  0
 13 18  1  0  0  0  0
 14 13  1  0  0  0  0
 15  9  1  0  0  0  0
 16 10  1  0  0  0  0
 17  2  2  0  0  0  0
 18  7  1  0  0  0  0
 19  3  1  0  0  0  0
 20  3  1  0  0  0  0
 21  5  2  0  0  0  0
 22 23  2  0  0  0  0
 23 10  1  0  0  0  0
 24  9  2  0  0  0  0
 25 19  1  0  0  0  0
 26 20  1  0  0  0  0
 27 17  1  0  0  0  0
 28 27  2  0  0  0  0
 12 25  1  0  0  0  0
 28 21  1  0  0  0  0
 24 22  1  0  0  0  0
M  END
>  <ID> (7954754)
7954754

>  <Supplier> (7954754)
ChemBridge

>  <clogP> (7954754)
3.343000000000000e+000

>  <RB> (7954754)
6

>  <tPSA> (7954754)
5.863999999999997e+001

>  <Hacc> (7954754)
3

>  <Hdon> (7954754)
1

>  <LogSw> (7954754)
-5.138000000000000e+000

>  <Group> (7954754)
2

>  <Core> (7954754)
570

$$$$
7921720
  -ISIS-  03310818272D

 28 31  0  0  0  0  0  0  0  0999 V2000
    3.9875    1.2000    0.0000 C   0  0  0  0  0  0  0  0  0  0  0  0
    3.3000    1.5083    0.0000 S   0  0  0  0  0  0  0  0  0  0  0  0
    4.6292    1.5750    0.0000 N   0  0  0  0  0  0  0  0  0  0  0  0
    4.6292    2.3333    0.0000 C   0  0  0  0  0  0  0  0  0  0  0  0
    5.2792    2.7083    0.0000 C   0  0  0  0  0  0  0  0  0  0  0  0
    3.9042    0.4583    0.0000 N   0  0  0  0  0  0  0  0  0  0  0  0
    2.8000    0.9458    0.0000 C   0  0  0  0  0  0  0  0  0  0  0  0
    3.1750    0.2958    0.0000 N   0  0  0  0  0  0  0  0  0  0  0  0
    6.5792    3.4583    0.0000 N   0  0  0  0  0  0  0  0  0  0  0  0
    5.2792    3.4583    0.0000 C   0  0  0  0  0  0  0  0  0  0  0  0
    6.5792    2.7083    0.0000 C   0  0  0  0  0  0  0  0  0  0  0  0
    5.9292    2.3333    0.0000 C   0  0  0  0  0  0  0  0  0  0  0  0
    5.9292    3.8333    0.0000 C   0  0  0  0  0  0  0  0  0  0  0  0
    7.2292    2.3333    0.0000 C   0  0  0  0  0  0  0  0  0  0  0  0
    3.9875    2.7083    0.0000 O   0  0  0  0  0  0  0  0  0  0  0  0
    4.6292    3.8333    0.0000 C   0  0  0  0  0  0  0  0  0  0  0  0
    7.8792    1.2000    0.0000 N   0  0  0  0  0  0  0  0  0  0  0  0
    5.9292    4.5667    0.0000 C   0  0  0  0  0  0  0  0  0  0  0  0
    2.0542    1.0250    0.0000 S   0  0  0  0  0  0  0  0  0  0  0  0
    4.6292    4.5667    0.0000 C   0  0  0  0  0  0  0  0  0  0  0  0
    5.2792    4.9417    0.0000 C   0  0  0  0  0  0  0  0  0  0  0  0
    7.2292    1.5750    0.0000 C   0  0  0  0  0  0  0  0  0  0  0  0
    3.9875    4.9417    0.0000 Cl  0  0  0  0  0  0  0  0  0  0  0  0
    7.8792    2.7083    0.0000 C   0  0  0  0  0  0  0  0  0  0  0  0
    8.5292    1.5750    0.0000 C   0  0  0  0  0  0  0  0  0  0  0  0
    1.6125    0.4208    0.0000 C   0  0  0  0  0  0  0  0  0  0  0  0
    8.5292    2.3333    0.0000 C   0  0  0  0  0  0  0  0  0  0  0  0
    0.8667    0.4958    0.0000 C   0  0  0  0  0  0  0  0  0  0  0  0
  2  1  1  0  0  0  0
  3  1  1  0  0  0  0
  4  3  1  0  0  0  0
  5  4  1  0  0  0  0
  6  1  2  0  0  0  0
  7  2  1  0  0  0  0
  8  6  1  0  0  0  0
  9 11  1  0  0  0  0
 10  5  2  0  0  0  0
 11 12  2  0  0  0  0
 12  5  1  0  0  0  0
 13 10  1  0  0  0  0
 14 11  1  0  0  0  0
 15  4  2  0  0  0  0
 16 10  1  0  0  0  0
 17 22  2  0  0  0  0
 18 13  1  0  0  0  0
 19  7  1  0  0  0  0
 20 16  2  0  0  0  0
 21 20  1  0  0  0  0
 22 14  1  0  0  0  0
 23 20  1  0  0  0  0
 24 14  2  0  0  0  0
 25 27  2  0  0  0  0
 26 19  1  0  0  0  0
 27 24  1  0  0  0  0
 28 26  1  0  0  0  0
  7  8  2  0  0  0  0
  9 13  2  0  0  0  0
 21 18  2  0  0  0  0
 17 25  1  0  0  0  0
M  END
>  <ID> (7921720)
7921720

>  <Supplier> (7921720)
ChemBridge

>  <clogP> (7921720)
3.810000000000000e+000

>  <RB> (7921720)
4

>  <tPSA> (7921720)
8.066000000000004e+001

>  <Hacc> (7921720)
5

>  <Hdon> (7921720)
1

>  <LogSw> (7921720)
-5.573000000000000e+000

>  <Group> (7921720)
3

>  <Core> (7921720)
120

$$$$
7405559
  -ISIS-  03310818262D

 21 23  0  0  0  0  0  0  0  0999 V2000
    6.1167   -1.1417    0.0000 C   0  0  0  0  0  0  0  0  0  0  0  0
    6.1125   -0.4917    0.0000 N   0  3  0  0  0  0  0  0  0  0  0  0
    6.5792   -3.2500    0.0000 C   0  0  0  0  0  0  0  0  0  0  0  0
    5.8792   -4.0375    0.0000 C   0  0  0  0  0  0  0  0  0  0  0  0
    6.9125   -3.8167    0.0000 C   0  0  0  0  0  0  0  0  0  0  0  0
    6.4792   -4.3042    0.0000 O   0  0  0  0  0  0  0  0  0  0  0  0
    5.9542   -3.3917    0.0000 C   0  0  0  0  0  0  0  0  0  0  0  0
    6.6500   -1.5167    0.0000 O   0  0  0  0  0  0  0  0  0  0  0  0
    6.4500   -2.1292    0.0000 C   0  0  0  0  0  0  0  0  0  0  0  0
    6.8375   -2.6542    0.0000 C   0  0  0  0  0  0  0  0  0  0  0  0
    5.5917   -1.5292    0.0000 C   0  0  0  0  0  0  0  0  0  0  0  0
    5.8042   -2.1417    0.0000 C   0  0  0  0  0  0  0  0  0  0  0  0
    6.6667   -0.1542    0.0000 O   0  5  0  0  0  0  0  0  0  0  0  0
    5.5417   -0.1667    0.0000 O   0  0  0  0  0  0  0  0  0  0  0  0
    7.5542   -3.8875    0.0000 O   0  0  0  0  0  0  0  0  0  0  0  0
    5.3167   -4.3625    0.0000 C   0  0  0  0  0  0  0  0  0  0  0  0
    4.7542   -4.0375    0.0000 C   0  0  0  0  0  0  0  0  0  0  0  0
    5.3167   -5.0125    0.0000 C   0  0  0  0  0  0  0  0  0  0  0  0
    4.2000   -4.3625    0.0000 C   0  0  0  0  0  0  0  0  0  0  0  0
    4.7542   -5.3375    0.0000 C   0  0  0  0  0  0  0  0  0  0  0  0
    4.2000   -5.0125    0.0000 C   0  0  0  0  0  0  0  0  0  0  0  0
  2  1  1  0  0  0  0
  3 10  2  0  0  0  0
  4  7  2  0  0  0  0
  5  3  1  0  0  0  0
  6  5  1  0  0  0  0
  7  3  1  0  0  0  0
  8  1  1  0  0  0  0
  9  8  1  0  0  0  0
 10  9  1  0  0  0  0
 11  1  2  0  0  0  0
 12 11  1  0  0  0  0
 13  2  1  0  0  0  0
 14  2  2  0  0  0  0
 15  5  2  0  0  0  0
 16  4  1  0  0  0  0
 17 16  2  0  0  0  0
 18 16  1  0  0  0  0
 19 17  1  0  0  0  0
 20 18  2  0  0  0  0
 21 20  1  0  0  0  0
 12  9  2  0  0  0  0
  4  6  1  0  0  0  0
 19 21  2  0  0  0  0
M  CHG  2   2   1  13  -1
M  END
>  <ID> (7405559)
7405559

>  <Supplier> (7405559)
ChemBridge

>  <clogP> (7405559)
3.233000000000000e+000

>  <RB> (7405559)
2

>  <tPSA> (7405559)
8.258000000000001e+001

>  <Hacc> (7405559)
5

>  <Hdon> (7405559)
0

>  <LogSw> (7405559)
-3.766000000000000e+000

>  <Group> (7405559)
2

>  <Core> (7405559)
309

$$$$
5556989
  -ISIS-  03310818222D

 21 22  0  0  0  0  0  0  0  0999 V2000
    2.2292   -6.6792    0.0000 S   0  0  3  0  0  0  0  0  0  0  0  0
    2.9792   -6.6875    0.0000 N   0  0  0  0  0  0  0  0  0  0  0  0
    1.4792   -6.6792    0.0000 C   0  0  0  0  0  0  0  0  0  0  0  0
    2.2167   -5.9292    0.0000 O   0  0  0  0  0  0  0  0  0  0  0  0
    2.2167   -7.4292    0.0000 O   0  0  0  0  0  0  0  0  0  0  0  0
   -1.1458   -6.0292    0.0000 C   0  0  0  0  0  0  0  0  0  0  0  0
   -0.7625   -6.6792    0.0000 N   0  0  0  0  0  0  0  0  0  0  0  0
    4.4875   -5.4000    0.0000 N   0  0  0  0  0  0  0  0  0  0  0  0
    3.3542   -6.0375    0.0000 C   0  0  0  0  0  0  0  0  0  0  0  0
   -1.8833   -6.0375    0.0000 O   0  0  0  0  0  0  0  0  0  0  0  0
    1.1042   -7.3292    0.0000 C   0  0  0  0  0  0  0  0  0  0  0  0
    1.1042   -6.0292    0.0000 C   0  0  0  0  0  0  0  0  0  0  0  0
    4.1042   -6.0375    0.0000 C   0  0  0  0  0  0  0  0  0  0  0  0
   -0.0125   -6.6792    0.0000 C   0  0  0  0  0  0  0  0  0  0  0  0
    0.3542   -7.3292    0.0000 C   0  0  0  0  0  0  0  0  0  0  0  0
    0.3542   -6.0292    0.0000 C   0  0  0  0  0  0  0  0  0  0  0  0
   -0.7625   -5.3875    0.0000 C   0  0  0  0  0  0  0  0  0  0  0  0
    5.2375   -5.3875    0.0000 C   0  0  0  0  0  0  0  0  0  0  0  0
    4.4875   -6.6875    0.0000 C   0  0  0  0  0  0  0  0  0  0  0  0
    5.6042   -6.0500    0.0000 C   0  0  0  0  0  0  0  0  0  0  0  0
    5.2375   -6.7000    0.0000 C   0  0  0  0  0  0  0  0  0  0  0  0
  2  1  1  0  0  0  0
  3  1  1  0  0  0  0
  4  1  2  0  0  0  0
  5  1  2  0  0  0  0
  6  7  1  0  0  0  0
  7 14  1  0  0  0  0
  8 13  2  0  0  0  0
  9  2  1  0  0  0  0
 10  6  2  0  0  0  0
 11  3  1  0  0  0  0
 12  3  2  0  0  0  0
 13  9  1  0  0  0  0
 14 16  2  0  0  0  0
 15 11  2  0  0  0  0
 16 12  1  0  0  0  0
 17  6  1  0  0  0  0
 18  8  1  0  0  0  0
 19 13  1  0  0  0  0
 20 21  1  0  0  0  0
 21 19  2  0  0  0  0
 15 14  1  0  0  0  0
 18 20  2  0  0  0  0
M  END
>  <ID> (5556989)
5556989

>  <Supplier> (5556989)
ChemBridge

>  <clogP> (5556989)
5.300000000000000e-001

>  <RB> (5556989)
4

>  <tPSA> (5556989)
8.816000000000003e+001

>  <Hacc> (5556989)
5

>  <Hdon> (5556989)
2

>  <LogSw> (5556989)
-5.800000000000000e-001

>  <Group> (5556989)
2

>  <Core> (5556989)
234

$$$$
7954750
  -ISIS-  03310818272D

 26 29  0  0  0  0  0  0  0  0999 V2000
    4.1417    1.9833    0.0000 N   0  0  3  0  0  0  0  0  0  0  0  0
    4.1417    1.2333    0.0000 C   0  0  0  0  0  0  0  0  0  0  0  0
    4.7917    2.3583    0.0000 C   0  0  0  0  0  0  0  0  0  0  0  0
    5.4417    1.9833    0.0000 C   0  0  0  0  0  0  0  0  0  0  0  0
    4.7917    0.8583    0.0000 N   0  0  0  0  0  0  0  0  0  0  0  0
    5.4417    1.2333    0.0000 C   0  0  0  0  0  0  0  0  0  0  0  0
    3.4917    2.3583    0.0000 C   0  0  0  0  0  0  0  0  0  0  0  0
    7.3917    0.8583    0.0000 C   0  0  0  0  0  0  0  0  0  0  0  0
    6.0917    0.8583    0.0000 C   0  0  0  0  0  0  0  0  0  0  0  0
    6.0917    2.3583    0.0000 C   0  0  0  0  0  0  0  0  0  0  0  0
    6.7417    1.2333    0.0000 C   0  0  0  0  0  0  0  0  0  0  0  0
    3.4917    0.8583    0.0000 S   0  0  0  0  0  0  0  0  0  0  0  0
    1.5417    1.9833    0.0000 C   0  0  0  0  0  0  0  0  0  0  0  0
    4.7917    3.1083    0.0000 O   0  0  0  0  0  0  0  0  0  0  0  0
    1.5417    1.2333    0.0000 C   0  0  0  0  0  0  0  0  0  0  0  0
    0.8292    2.2125    0.0000 O   0  0  0  0  0  0  0  0  0  0  0  0
    0.8292    1.0000    0.0000 O   0  0  0  0  0  0  0  0  0  0  0  0
    0.3917    1.6083    0.0000 C   0  0  0  0  0  0  0  0  0  0  0  0
    2.1917    2.3583    0.0000 C   0  0  0  0  0  0  0  0  0  0  0  0
    2.8417    1.9833    0.0000 C   0  0  0  0  0  0  0  0  0  0  0  0
    6.7417    1.9833    0.0000 C   0  0  0  0  0  0  0  0  0  0  0  0
    7.3917    0.1083    0.0000 O   0  0  0  0  0  0  0  0  0  0  0  0
    2.1917    0.8583    0.0000 C   0  0  0  0  0  0  0  0  0  0  0  0
    2.8417    1.2333    0.0000 C   0  0  0  0  0  0  0  0  0  0  0  0
    8.0417    1.2333    0.0000 O   0  0  0  0  0  0  0  0  0  0  0  0
    8.6917    0.8583    0.0000 C   0  0  0  0  0  0  0  0  0  0  0  0
  2  1  1  0  0  0  0
  3  1  1  0  0  0  0
  4  3  1  0  0  0  0
  5  2  1  0  0  0  0
  6  4  1  0  0  0  0
  7  1  1  0  0  0  0
  8 11  1  0  0  0  0
  9  6  2  0  0  0  0
 10  4  2  0  0  0  0
 11 21  2  0  0  0  0
 12  2  2  0  0  0  0
 13 19  2  0  0  0  0
 14  3  2  0  0  0  0
 15 23  2  0  0  0  0
 16 13  1  0  0  0  0
 17 15  1  0  0  0  0
 18 16  1  0  0  0  0
 19 20  1  0  0  0  0
 20  7  1  0  0  0  0
 21 10  1  0  0  0  0
 22  8  2  0  0  0  0
 23 24  1  0  0  0  0
 24 20  2  0  0  0  0
 25  8  1  0  0  0  0
 26 25  1  0  0  0  0
  6  5  1  0  0  0  0
 13 15  1  0  0  0  0
  9 11  1  0  0  0  0
 17 18  1  0  0  0  0
M  END
>  <ID> (7954750)
7954750

>  <Supplier> (7954750)
ChemBridge

>  <clogP> (7954750)
2.187000000000000e+000

>  <RB> (7954750)
3

>  <tPSA> (7954750)
8.255000000000004e+001

>  <Hacc> (7954750)
5

>  <Hdon> (7954750)
1

>  <LogSw> (7954750)
-3.768000000000000e+000

>  <Group> (7954750)
1

>  <Core> (7954750)
242

$$$$
6620392
  -ISIS-  03310818242D

 23 24  0  0  0  0  0  0  0  0999 V2000
    5.4500    1.7333    0.0000 S   0  0  3  0  0  0  0  0  0  0  0  0
    4.7000    1.2708    0.0000 C   0  0  0  0  0  0  0  0  0  0  0  0
    5.0000    2.4958    0.0000 O   0  0  0  0  0  0  0  0  0  0  0  0
    6.2042    2.1833    0.0000 O   0  0  0  0  0  0  0  0  0  0  0  0
    0.0000    0.0000    0.0000 C   0  0  0  0  0  0  0  0  0  0  0  0
    5.9042    0.9625    0.0000 N   0  0  0  0  0  0  0  0  0  0  0  0
   -0.4458    0.7708    0.0000 O   0  0  0  0  0  0  0  0  0  0  0  0
    4.7000    0.3958    0.0000 C   0  0  0  0  0  0  0  0  0  0  0  0
    3.9375    1.7000    0.0000 C   0  0  0  0  0  0  0  0  0  0  0  0
    0.8792    0.0000    0.0000 N   0  0  0  0  0  0  0  0  0  0  0  0
   -0.5833   -0.6500    0.0000 C   0  0  0  0  0  0  0  0  0  0  0  0
   -1.4833   -0.5000    0.0000 C   0  0  0  0  0  0  0  0  0  0  0  0
   -3.1958   -0.1292    0.0000 C   0  0  0  0  0  0  0  0  0  0  0  0
    3.9375   -0.0167    0.0000 C   0  0  0  0  0  0  0  0  0  0  0  0
    3.1792    1.3000    0.0000 C   0  0  0  0  0  0  0  0  0  0  0  0
    3.1792    0.3958    0.0000 C   0  0  0  0  0  0  0  0  0  0  0  0
   -4.0625    0.0625    0.0000 Cl  0  0  0  0  0  0  0  0  0  0  0  0
   -2.5958    0.5000    0.0000 C   0  0  0  0  0  0  0  0  0  0  0  0
   -2.9333   -0.9542    0.0000 C   0  0  0  0  0  0  0  0  0  0  0  0
   -2.0625   -1.1542    0.0000 C   0  0  0  0  0  0  0  0  0  0  0  0
   -1.7458    0.3208    0.0000 C   0  0  0  0  0  0  0  0  0  0  0  0
    1.6500    0.4208    0.0000 C   0  0  0  0  0  0  0  0  0  0  0  0
    2.4042   -0.0167    0.0000 C   0  0  0  0  0  0  0  0  0  0  0  0
  2  1  1  0  0  0  0
  3  1  2  0  0  0  0
  4  1  2  0  0  0  0
  5 10  1  0  0  0  0
  6  1  1  0  0  0  0
  7  5  2  0  0  0  0
  8  2  2  0  0  0  0
  9  2  1  0  0  0  0
 10 22  1  0  0  0  0
 11  5  1  0  0  0  0
 12 11  1  0  0  0  0
 13 18  1  0  0  0  0
 14  8  1  0  0  0  0
 15  9  2  0  0  0  0
 16 15  1  0  0  0  0
 17 13  1  0  0  0  0
 18 21  2  0  0  0  0
 19 20  1  0  0  0  0
 20 12  2  0  0  0  0
 21 12  1  0  0  0  0
 22 23  1  0  0  0  0
 23 16  1  0  0  0  0
 14 16  2  0  0  0  0
 19 13  2  0  0  0  0
M  END
>  <ID> (6620392)
6620392

>  <Supplier> (6620392)
ChemBridge

>  <clogP> (6620392)
1.660000000000000e+000

>  <RB> (6620392)
6

>  <tPSA> (6620392)
8.926000000000002e+001

>  <Hacc> (6620392)
4

>  <Hdon> (6620392)
2

>  <LogSw> (6620392)
-3.190000000000000e+000

>  <Group> (6620392)
3

>  <Core> (6620392)
531

$$$$
7650270
  -ISIS-  03310818262D

 23 25  0  0  0  0  0  0  0  0999 V2000
    2.9542   -1.7417    0.0000 C   0  0  0  0  0  0  0  0  0  0  0  0
   -0.2958   -2.8667    0.0000 N   0  0  3  0  0  0  0  0  0  0  0  0
    2.3042   -1.3667    0.0000 N   0  0  0  0  0  0  0  0  0  0  0  0
    3.6042   -1.3667    0.0000 C   0  0  0  0  0  0  0  0  0  0  0  0
   -1.5958   -3.6250    0.0000 N   0  0  3  0  0  0  0  0  0  0  0  0
    0.3542   -2.4917    0.0000 C   0  0  0  0  0  0  0  0  0  0  0  0
    2.9542   -2.4917    0.0000 O   0  0  0  0  0  0  0  0  0  0  0  0
   -0.9458   -2.4917    0.0000 C   0  0  0  0  0  0  0  0  0  0  0  0
   -0.2958   -3.6250    0.0000 C   0  0  0  0  0  0  0  0  0  0  0  0
    4.2542   -1.7500    0.0000 C   0  0  0  0  0  0  0  0  0  0  0  0
    0.3542   -1.7417    0.0000 C   0  0  0  0  0  0  0  0  0  0  0  0
    1.0042   -2.8667    0.0000 C   0  0  0  0  0  0  0  0  0  0  0  0
    1.6542   -1.7417    0.0000 C   0  0  0  0  0  0  0  0  0  0  0  0
   -1.5958   -2.8667    0.0000 C   0  0  0  0  0  0  0  0  0  0  0  0
   -0.9458   -4.0000    0.0000 C   0  0  0  0  0  0  0  0  0  0  0  0
    4.9042   -1.3750    0.0000 C   0  0  0  0  0  0  0  0  0  0  0  0
    1.0042   -1.3667    0.0000 C   0  0  0  0  0  0  0  0  0  0  0  0
    1.6542   -2.4917    0.0000 C   0  0  0  0  0  0  0  0  0  0  0  0
    5.5542   -1.7500    0.0000 Br  0  0  0  0  0  0  0  0  0  0  0  0
   -2.2458   -4.0000    0.0000 C   0  0  0  0  0  0  0  0  0  0  0  0
    3.6042   -0.6167    0.0000 C   0  0  0  0  0  0  0  0  0  0  0  0
    4.2542   -0.2500    0.0000 C   0  0  0  0  0  0  0  0  0  0  0  0
    4.9042   -0.6250    0.0000 C   0  0  0  0  0  0  0  0  0  0  0  0
  2  6  1  0  0  0  0
  3  1  1  0  0  0  0
  4  1  1  0  0  0  0
  5 15  1  0  0  0  0
  6 12  1  0  0  0  0
  7  1  2  0  0  0  0
  8  2  1  0  0  0  0
  9  2  1  0  0  0  0
 10  4  1  0  0  0  0
 11 17  1  0  0  0  0
 12 18  2  0  0  0  0
 13  3  1  0  0  0  0
 14  8  1  0  0  0  0
 15  9  1  0  0  0  0
 16 10  2  0  0  0  0
 17 13  2  0  0  0  0
 18 13  1  0  0  0  0
 19 16  1  0  0  0  0
 20  5  1  0  0  0  0
 21  4  2  0  0  0  0
 22 21  1  0  0  0  0
 23 22  2  0  0  0  0
 16 23  1  0  0  0  0
 11  6  2  0  0  0  0
 14  5  1  0  0  0  0
M  END
>  <ID> (7650270)
7650270

>  <Supplier> (7650270)
ChemBridge

>  <clogP> (7650270)
3.100000000000000e+000

>  <RB> (7650270)
3

>  <tPSA> (7650270)
3.558000000000000e+001

>  <Hacc> (7650270)
2

>  <Hdon> (7650270)
1

>  <LogSw> (7650270)
-4.792000000000000e+000

>  <Group> (7650270)
3

>  <Core> (7650270)
162

$$$$
7650271
  -ISIS-  03310818262D

 25 26  0  0  0  0  0  0  0  0999 V2000
   -0.7083   -1.0292    0.0000 C   0  0  0  0  0  0  0  0  0  0  0  0
   -0.0625   -1.4042    0.0000 C   0  0  0  0  0  0  0  0  0  0  0  0
   -0.7125   -0.2792    0.0000 C   0  0  0  0  0  0  0  0  0  0  0  0
   -1.3583   -1.4042    0.0000 O   0  0  0  0  0  0  0  0  0  0  0  0
   -3.3083   -4.7792    0.0000 C   0  0  0  0  0  0  0  0  0  0  0  0
   -2.6583   -4.4042    0.0000 C   0  0  0  0  0  0  0  0  0  0  0  0
   -2.0083   -2.5292    0.0000 C   0  0  0  0  0  0  0  0  0  0  0  0
   -2.0083   -3.2792    0.0000 N   0  0  0  0  0  0  0  0  0  0  0  0
   -2.6583   -3.6542    0.0000 C   0  0  0  0  0  0  0  0  0  0  0  0
    0.5875   -1.0292    0.0000 C   0  0  0  0  0  0  0  0  0  0  0  0
   -0.0625    0.0958    0.0000 C   0  0  0  0  0  0  0  0  0  0  0  0
    0.5875   -0.2792    0.0000 C   0  0  0  0  0  0  0  0  0  0  0  0
   -3.9583   -4.4042    0.0000 C   0  0  0  0  0  0  0  0  0  0  0  0
   -2.6500   -2.1542    0.0000 O   0  0  0  0  0  0  0  0  0  0  0  0
   -1.3583   -2.1542    0.0000 C   0  0  0  0  0  0  0  0  0  0  0  0
   -3.9583   -3.6542    0.0000 C   0  0  0  0  0  0  0  0  0  0  0  0
    1.8792   -0.2792    0.0000 O   0  0  0  0  0  0  0  0  0  0  0  0
   -0.0583   -2.1500    0.0000 Cl  0  0  0  0  0  0  0  0  0  0  0  0
    1.2292    0.0958    0.0000 C   0  0  0  0  0  0  0  0  0  0  0  0
   -3.3083   -5.5250    0.0000 Cl  0  0  0  0  0  0  0  0  0  0  0  0
   -3.3083   -3.2792    0.0000 C   0  0  0  0  0  0  0  0  0  0  0  0
   -1.3625    0.0958    0.0000 O   0  0  0  0  0  0  0  0  0  0  0  0
   -4.6083   -4.7792    0.0000 C   0  0  0  0  0  0  0  0  0  0  0  0
   -1.3625    0.8458    0.0000 C   0  0  0  0  0  0  0  0  0  0  0  0
   -2.0125    1.2208    0.0000 C   0  0  0  0  0  0  0  0  0  0  0  0
  2  1  2  0  0  0  0
  3  1  1  0  0  0  0
  4  1  1  0  0  0  0
  5  6  2  0  0  0  0
  6  9  1  0  0  0  0
  7 15  1  0  0  0  0
  8  7  1  0  0  0  0
  9  8  1  0  0  0  0
 10  2  1  0  0  0  0
 11  3  2  0  0  0  0
 12 11  1  0  0  0  0
 13 16  2  0  0  0  0
 14  7  2  0  0  0  0
 15  4  1  0  0  0  0
 16 21  1  0  0  0  0
 17 19  2  0  0  0  0
 18  2  1  0  0  0  0
 19 12  1  0  0  0  0
 20  5  1  0  0  0  0
 21  9  2  0  0  0  0
 22  3  1  0  0  0  0
 23 13  1  0  0  0  0
 24 22  1  0  0  0  0
 25 24  1  0  0  0  0
 10 12  2  0  0  0  0
  5 13  1  0  0  0  0
M  END
>  <ID> (7650271)
7650271

>  <Supplier> (7650271)
ChemBridge

>  <clogP> (7650271)
4.563999999999997e+000

>  <RB> (7650271)
5

>  <tPSA> (7650271)
6.463000000000000e+001

>  <Hacc> (7650271)
4

>  <Hdon> (7650271)
1

>  <LogSw> (7650271)
-5.776000000000002e+000

>  <Group> (7650271)
1

>  <Core> (7650271)
315

$$$$
7650273
  -ISIS-  03310818262D

 20 23  0  0  0  0  0  0  0  0999 V2000
    4.0292   -0.4042    0.0000 N   0  0  3  0  0  0  0  0  0  0  0  0
    3.2750   -0.0792    0.0000 C   0  0  0  0  0  0  0  0  0  0  0  0
    2.5292   -0.5375    0.0000 C   0  0  3  0  0  0  0  0  0  0  0  0
    3.3500    0.7458    0.0000 N   0  0  0  0  0  0  0  0  0  0  0  0
    4.5750    0.2125    0.0000 C   0  0  0  0  0  0  0  0  0  0  0  0
    4.1542    0.9208    0.0000 N   0  0  0  0  0  0  0  0  0  0  0  0
    4.2417   -1.2042    0.0000 C   0  0  0  0  0  0  0  0  0  0  0  0
    1.6667   -0.4500    0.0000 C   0  0  0  0  0  0  0  0  0  0  0  0
    1.9042   -0.0875    0.0000 C   0  0  0  0  0  0  0  0  0  0  0  0
    2.6917   -1.3292    0.0000 C   0  0  0  0  0  0  0  0  0  0  0  0
    5.4000    0.2125    0.0000 S   0  0  0  0  0  0  0  0  0  0  0  0
    2.0167   -1.7875    0.0000 C   0  0  3  0  0  0  0  0  0  0  0  0
    1.2542   -0.5375    0.0000 C   0  0  3  0  0  0  0  0  0  0  0  0
    0.9667   -0.9292    0.0000 C   0  0  3  0  0  0  0  0  0  0  0  0
    0.3292   -0.3917    0.0000 C   0  0  0  0  0  0  0  0  0  0  0  0
    1.4417   -1.2750    0.0000 C   0  0  0  0  0  0  0  0  0  0  0  0
    1.1417   -1.7250    0.0000 C   0  0  0  0  0  0  0  0  0  0  0  0
    5.0375   -1.4167    0.0000 C   0  0  3  0  0  0  0  0  0  0  0  0
    5.0292   -2.2417    0.0000 C   0  0  0  0  0  0  0  0  0  0  0  0
    5.8292   -1.2000    0.0000 C   0  0  0  0  0  0  0  0  0  0  0  0
  2  1  1  0  0  0  0
  3  2  1  0  0  0  0
  4  2  2  0  0  0  0
  5  1  1  0  0  0  0
  6  5  1  0  0  0  0
  7  1  1  0  0  0  0
  8  3  1  0  0  0  0
  9  3  1  0  0  0  0
 10  3  1  0  0  0  0
 11  5  2  0  0  0  0
 12 10  1  0  0  0  0
 13  9  1  0  0  0  0
 14  8  1  0  0  0  0
 15 13  1  0  0  0  0
 16 12  1  0  0  0  0
 17 12  1  0  0  0  0
 18  7  1  0  0  0  0
 19 18  1  0  0  0  0
 20 18  1  0  0  0  0
  6  4  1  0  0  0  0
 14 17  1  0  0  0  0
 13 16  1  0  0  0  0
 14 15  1  0  0  0  0
M  END
>  <ID> (7650273)
7650273

>  <Supplier> (7650273)
ChemBridge

>  <clogP> (7650273)
2.738000000000000e+000

>  <RB> (7650273)
2

>  <tPSA> (7650273)
3.361000000000000e+001

>  <Hacc> (7650273)
1

>  <Hdon> (7650273)
1

>  <LogSw> (7650273)
-6.427000000000000e+000

>  <Group> (7650273)
3

>  <Core> (7650273)
029

$$$$
9135783
  -ISIS-  03310818292D

 22 24  0  0  0  0  0  0  0  0999 V2000
    3.9792    1.0708    0.0000 C   0  0  0  0  0  0  0  0  0  0  0  0
    4.7000    0.8333    0.0000 C   0  0  0  0  0  0  0  0  0  0  0  0
    5.1375    1.4458    0.0000 N   0  0  3  0  0  0  0  0  0  0  0  0
    4.7000    2.0458    0.0000 N   0  0  0  0  0  0  0  0  0  0  0  0
    3.9792    1.8208    0.0000 N   0  0  0  0  0  0  0  0  0  0  0  0
    3.3792    0.6250    0.0000 C   0  0  0  0  0  0  0  0  0  0  0  0
    2.6917    0.9333    0.0000 N   0  0  0  0  0  0  0  0  0  0  0  0
    5.8875    1.4458    0.0000 C   0  0  0  0  0  0  0  0  0  0  0  0
    4.9292    0.1208    0.0000 N   0  0  0  0  0  0  0  0  0  0  0  0
    3.4542   -0.1167    0.0000 O   0  0  0  0  0  0  0  0  0  0  0  0
    6.2625    0.7958    0.0000 C   0  0  0  0  0  0  0  0  0  0  0  0
    6.2625    2.0958    0.0000 C   0  0  0  0  0  0  0  0  0  0  0  0
    2.0875    0.4875    0.0000 C   0  0  3  0  0  0  0  0  0  0  0  0
    7.0125    0.7958    0.0000 C   0  0  0  0  0  0  0  0  0  0  0  0
    7.0125    2.0958    0.0000 C   0  0  0  0  0  0  0  0  0  0  0  0
    7.3875    1.4458    0.0000 C   0  0  0  0  0  0  0  0  0  0  0  0
    8.1375    1.4458    0.0000 C   0  0  0  0  0  0  0  0  0  0  0  0
    1.4000    0.7958    0.0000 C   0  0  0  0  0  0  0  0  0  0  0  0
    2.1625   -0.2542    0.0000 C   0  0  0  0  0  0  0  0  0  0  0  0
    1.5542   -0.6917    0.0000 C   0  0  0  0  0  0  0  0  0  0  0  0
    0.7917    0.3583    0.0000 C   0  0  0  0  0  0  0  0  0  0  0  0
    0.8667   -0.3917    0.0000 C   0  0  0  0  0  0  0  0  0  0  0  0
  2  1  2  0  0  0  0
  3  2  1  0  0  0  0
  4  5  2  0  0  0  0
  5  1  1  0  0  0  0
  6  1  1  0  0  0  0
  7  6  1  0  0  0  0
  8  3  1  0  0  0  0
  9  2  1  0  0  0  0
 10  6  2  0  0  0  0
 11  8  2  0  0  0  0
 12  8  1  0  0  0  0
 13  7  1  0  0  0  0
 14 11  1  0  0  0  0
 15 12  2  0  0  0  0
 16 15  1  0  0  0  0
 17 16  1  0  0  0  0
 18 13  1  0  0  0  0
 19 13  1  0  0  0  0
 20 19  1  0  0  0  0
 21 18  1  0  0  0  0
 22 20  1  0  0  0  0
  4  3  1  0  0  0  0
 21 22  1  0  0  0  0
 14 16  2  0  0  0  0
M  END
>  <ID> (9135783)
9135783

>  <Supplier> (9135783)
ChemBridge

>  <clogP> (9135783)
2.885000000000000e+000

>  <RB> (9135783)
3

>  <tPSA> (9135783)
8.583000000000000e+001

>  <Hacc> (9135783)
3

>  <Hdon> (9135783)
2

>  <LogSw> (9135783)
-3.847000000000000e+000

>  <Group> (9135783)
2

$$$$
5998346
  -ISIS-  03310818232D

 31 33  0  0  0  0  0  0  0  0999 V2000
    5.7375   -4.8417    0.0000 S   0  0  3  0  0  0  0  0  0  0  0  0
    5.7375   -4.0167    0.0000 N   0  0  3  0  0  0  0  0  0  0  0  0
    5.0167   -3.6042    0.0000 C   0  0  0  0  0  0  0  0  0  0  0  0
    6.4500   -3.6000    0.0000 C   0  0  0  0  0  0  0  0  0  0  0  0
    7.1667   -4.0042    0.0000 C   0  0  0  0  0  0  0  0  0  0  0  0
    6.1417   -5.5542    0.0000 O   0  0  0  0  0  0  0  0  0  0  0  0
    6.5292   -5.0542    0.0000 O   0  0  0  0  0  0  0  0  0  0  0  0
    5.0250   -5.2542    0.0000 C   0  0  0  0  0  0  0  0  0  0  0  0
    7.8792   -3.6000    0.0000 N   0  0  0  0  0  0  0  0  0  0  0  0
    4.3042   -4.0167    0.0000 C   0  0  0  0  0  0  0  0  0  0  0  0
    5.0167   -2.7750    0.0000 C   0  0  0  0  0  0  0  0  0  0  0  0
    7.1667   -4.8375    0.0000 O   0  0  0  0  0  0  0  0  0  0  0  0
    4.3042   -2.3625    0.0000 C   0  0  0  0  0  0  0  0  0  0  0  0
    3.5917   -3.6042    0.0000 C   0  0  0  0  0  0  0  0  0  0  0  0
    8.5917   -4.0042    0.0000 C   0  0  0  0  0  0  0  0  0  0  0  0
    3.5917   -2.7750    0.0000 C   0  0  0  0  0  0  0  0  0  0  0  0
   10.0167   -4.8417    0.0000 C   0  0  0  0  0  0  0  0  0  0  0  0
    8.5917   -4.8417    0.0000 C   0  0  0  0  0  0  0  0  0  0  0  0
    9.3042   -3.6000    0.0000 C   0  0  0  0  0  0  0  0  0  0  0  0
    9.3000   -5.2542    0.0000 C   0  0  0  0  0  0  0  0  0  0  0  0
   10.0167   -4.0167    0.0000 C   0  0  0  0  0  0  0  0  0  0  0  0
   10.7375   -5.2542    0.0000 O   0  0  0  0  0  0  0  0  0  0  0  0
    4.3125   -4.8375    0.0000 C   0  0  0  0  0  0  0  0  0  0  0  0
    5.0292   -6.0750    0.0000 C   0  0  0  0  0  0  0  0  0  0  0  0
    4.3000   -1.5375    0.0000 C   0  0  0  0  0  0  0  0  0  0  0  0
    2.8750   -4.0167    0.0000 C   0  0  0  0  0  0  0  0  0  0  0  0
   11.4500   -4.8500    0.0000 C   0  0  0  0  0  0  0  0  0  0  0  0
   12.1667   -5.2625    0.0000 C   0  0  0  0  0  0  0  0  0  0  0  0
    4.3167   -6.4875    0.0000 C   0  0  0  0  0  0  0  0  0  0  0  0
    3.6000   -5.2500    0.0000 C   0  0  0  0  0  0  0  0  0  0  0  0
    3.6000   -6.0792    0.0000 C   0  0  0  0  0  0  0  0  0  0  0  0
  2  1  1  0  0  0  0
  3  2  1  0  0  0  0
  4  2  1  0  0  0  0
  5  4  1  0  0  0  0
  6  1  2  0  0  0  0
  7  1  2  0  0  0  0
  8  1  1  0  0  0  0
  9  5  1  0  0  0  0
 10  3  2  0  0  0  0
 11  3  1  0  0  0  0
 12  5  2  0  0  0  0
 13 11  2  0  0  0  0
 14 10  1  0  0  0  0
 15  9  1  0  0  0  0
 16 13  1  0  0  0  0
 17 21  1  0  0  0  0
 18 15  2  0  0  0  0
 19 15  1  0  0  0  0
 20 18  1  0  0  0  0
 21 19  2  0  0  0  0
 22 17  1  0  0  0  0
 23  8  2  0  0  0  0
 24  8  1  0  0  0  0
 25 13  1  0  0  0  0
 26 14  1  0  0  0  0
 27 22  1  0  0  0  0
 28 27  1  0  0  0  0
 29 24  2  0  0  0  0
 30 23  1  0  0  0  0
 31 29  1  0  0  0  0
 31 30  2  0  0  0  0
 14 16  2  0  0  0  0
 20 17  2  0  0  0  0
M  END
>  <ID> (5998346)
5998346

>  <Supplier> (5998346)
ChemBridge

>  <clogP> (5998346)
5.350000000000000e+000

>  <RB> (5998346)
5

>  <tPSA> (5998346)
7.570999999999999e+001

>  <Hacc> (5998346)
4

>  <Hdon> (5998346)
1

>  <LogSw> (5998346)
-6.966000000000000e+000

>  <Group> (5998346)
2

>  <Core> (5998346)
084

$$$$
5537252
  -ISIS-  03310818222D

 25 26  0  0  0  0  0  0  0  0999 V2000
   -0.4833    0.4500    0.0000 C   0  0  0  0  0  0  0  0  0  0  0  0
   -1.3625    0.4500    0.0000 C   0  0  0  0  0  0  0  0  0  0  0  0
   -1.7500    1.2208    0.0000 N   0  0  0  0  0  0  0  0  0  0  0  0
    4.5875   -1.1500    0.0000 C   0  0  0  0  0  0  0  0  0  0  0  0
   -2.6125    1.2500    0.0000 C   0  0  0  0  0  0  0  0  0  0  0  0
    0.7667   -0.3042    0.0000 N   0  0  0  0  0  0  0  0  0  0  0  0
   -0.0833   -0.2875    0.0000 N   0  0  0  0  0  0  0  0  0  0  0  0
    3.7500   -1.1375    0.0000 C   0  0  0  0  0  0  0  0  0  0  0  0
   -0.0458    1.1833    0.0000 O   0  0  0  0  0  0  0  0  0  0  0  0
   -1.8000   -0.2792    0.0000 O   0  0  0  0  0  0  0  0  0  0  0  0
    5.0167   -0.4042    0.0000 O   0  0  0  0  0  0  0  0  0  0  0  0
   -3.0125    2.0000    0.0000 C   0  0  0  0  0  0  0  0  0  0  0  0
    3.2875   -1.8542    0.0000 C   0  0  0  0  0  0  0  0  0  0  0  0
    3.3292   -0.4000    0.0000 C   0  0  0  0  0  0  0  0  0  0  0  0
    1.1792   -1.0542    0.0000 C   0  0  0  0  0  0  0  0  0  0  0  0
    4.9375   -1.9000    0.0000 O   0  0  0  0  0  0  0  0  0  0  0  0
    2.0292   -1.0875    0.0000 C   0  0  0  0  0  0  0  0  0  0  0  0
    2.4875   -0.3667    0.0000 C   0  0  0  0  0  0  0  0  0  0  0  0
    2.4375   -1.8292    0.0000 C   0  0  0  0  0  0  0  0  0  0  0  0
   -2.5708    2.7125    0.0000 O   0  0  0  0  0  0  0  0  0  0  0  0
   -3.0708    0.5458    0.0000 C   0  0  0  0  0  0  0  0  0  0  0  0
   -3.8500    2.0458    0.0000 C   0  0  0  0  0  0  0  0  0  0  0  0
   -1.7333    2.6958    0.0000 C   0  0  0  0  0  0  0  0  0  0  0  0
   -3.9125    0.5833    0.0000 C   0  0  0  0  0  0  0  0  0  0  0  0
   -4.3333    1.3208    0.0000 C   0  0  0  0  0  0  0  0  0  0  0  0
  2  1  1  0  0  0  0
  3  2  1  0  0  0  0
  4  8  1  0  0  0  0
  5  3  1  0  0  0  0
  6  7  1  0  0  0  0
  7  1  1  0  0  0  0
  8 13  2  0  0  0  0
  9  1  2  0  0  0  0
 10  2  2  0  0  0  0
 11  4  2  0  0  0  0
 12  5  2  0  0  0  0
 13 19  1  0  0  0  0
 14 18  2  0  0  0  0
 15  6  2  0  0  0  0
 16  4  1  0  0  0  0
 17 15  1  0  0  0  0
 18 17  1  0  0  0  0
 19 17  2  0  0  0  0
 20 12  1  0  0  0  0
 21  5  1  0  0  0  0
 22 12  1  0  0  0  0
 23 20  1  0  0  0  0
 24 21  2  0  0  0  0
 25 24  1  0  0  0  0
  8 14  1  0  0  0  0
 22 25  2  0  0  0  0
M  END
>  <ID> (5537252)
5537252

>  <Supplier> (5537252)
ChemBridge

>  <clogP> (5537252)
3.370000000000000e+000

>  <RB> (5537252)
5

>  <tPSA> (5537252)
1.170900000000000e+002

>  <Hacc> (5537252)
6

>  <Hdon> (5537252)
3

>  <LogSw> (5537252)
-4.566999999999998e+000

>  <Group> (5537252)
3

>  <Core> (5537252)
188

$$$$
6692146
  -ISIS-  03310818242D

 22 24  0  0  0  0  0  0  0  0999 V2000
    1.5667   -0.8042    0.0000 C   0  0  0  0  0  0  0  0  0  0  0  0
    0.8875   -0.4167    0.0000 N   0  0  3  0  0  0  0  0  0  0  0  0
   -1.2333    0.8125    0.0000 C   0  0  0  0  0  0  0  0  0  0  0  0
   -0.5125    0.3958    0.0000 N   0  0  3  0  0  0  0  0  0  0  0  0
    2.2667   -0.4167    0.0000 N   0  0  0  0  0  0  0  0  0  0  0  0
    1.5667   -1.6167    0.0000 S   0  0  0  0  0  0  0  0  0  0  0  0
   -1.9125    0.3958    0.0000 C   0  0  3  0  0  0  0  0  0  0  0  0
    0.8875    0.3958    0.0000 C   0  0  0  0  0  0  0  0  0  0  0  0
    0.1875   -0.8042    0.0000 C   0  0  0  0  0  0  0  0  0  0  0  0
   -0.5125   -0.4167    0.0000 C   0  0  0  0  0  0  0  0  0  0  0  0
    0.1875    0.7833    0.0000 C   0  0  0  0  0  0  0  0  0  0  0  0
   -1.2333    1.5958    0.0000 O   0  0  0  0  0  0  0  0  0  0  0  0
   -2.6708    0.6333    0.0000 O   0  0  0  0  0  0  0  0  0  0  0  0
    2.2667    0.3625    0.0000 C   0  0  0  0  0  0  0  0  0  0  0  0
   -3.1333    0.0000    0.0000 C   0  0  0  0  0  0  0  0  0  0  0  0
   -1.9125   -0.3875    0.0000 C   0  0  0  0  0  0  0  0  0  0  0  0
    1.5667    0.7833    0.0000 C   0  0  0  0  0  0  0  0  0  0  0  0
    2.9667    0.7833    0.0000 C   0  0  0  0  0  0  0  0  0  0  0  0
   -2.6708   -0.6292    0.0000 C   0  0  0  0  0  0  0  0  0  0  0  0
    2.9667    1.5625    0.0000 C   0  0  0  0  0  0  0  0  0  0  0  0
    1.5667    1.5625    0.0000 C   0  0  0  0  0  0  0  0  0  0  0  0
    2.2667    1.9833    0.0000 C   0  0  0  0  0  0  0  0  0  0  0  0
  2  1  1  0  0  0  0
  3  4  1  0  0  0  0
  4 10  1  0  0  0  0
  5  1  1  0  0  0  0
  6  1  2  0  0  0  0
  7  3  1  0  0  0  0
  8  2  1  0  0  0  0
  9  2  1  0  0  0  0
 10  9  1  0  0  0  0
 11  8  1  0  0  0  0
 12  3  2  0  0  0  0
 13  7  1  0  0  0  0
 14  5  1  0  0  0  0
 15 13  1  0  0  0  0
 16  7  1  0  0  0  0
 17 14  2  0  0  0  0
 18 14  1  0  0  0  0
 19 16  1  0  0  0  0
 20 18  2  0  0  0  0
 21 17  1  0  0  0  0
 22 20  1  0  0  0  0
  4 11  1  0  0  0  0
 21 22  2  0  0  0  0
 19 15  1  0  0  0  0
M  END
>  <ID> (6692146)
6692146

>  <Supplier> (6692146)
ChemBridge

>  <clogP> (6692146)
2.100000000000000e+000

>  <RB> (6692146)
2

>  <tPSA> (6692146)
4.481000000000002e+001

>  <Hacc> (6692146)
2

>  <Hdon> (6692146)
1

>  <LogSw> (6692146)
-3.323000000000000e+000

>  <Group> (6692146)
3

>  <Core> (6692146)
169

$$$$
5524554
  -ISIS-  03310818222D

 19 20  0  0  0  0  0  0  0  0999 V2000
   12.8292    0.7500    0.0000 C   0  0  0  0  0  0  0  0  0  0  0  0
   12.0792    0.7500    0.0000 C   0  0  0  0  0  0  0  0  0  0  0  0
   13.2042    0.0125    0.0000 N   0  0  0  0  0  0  0  0  0  0  0  0
   13.9542    0.0125    0.0000 C   0  0  0  0  0  0  0  0  0  0  0  0
   14.3292   -0.6167    0.0000 C   0  0  0  0  0  0  0  0  0  0  0  0
   11.7042    0.1000    0.0000 C   0  0  0  0  0  0  0  0  0  0  0  0
   13.2000    1.4000    0.0000 O   0  0  0  0  0  0  0  0  0  0  0  0
   13.9542   -1.2667    0.0000 C   0  0  3  0  0  0  0  0  0  0  0  0
   12.0792   -0.5375    0.0000 F   0  0  0  0  0  0  0  0  0  0  0  0
   11.7042    1.4000    0.0000 C   0  0  0  0  0  0  0  0  0  0  0  0
   14.3292    0.6625    0.0000 C   0  0  0  0  0  0  0  0  0  0  0  0
   15.0792   -0.6167    0.0000 C   0  0  0  0  0  0  0  0  0  0  0  0
   10.9542    0.1125    0.0000 C   0  0  0  0  0  0  0  0  0  0  0  0
   13.2042   -1.2667    0.0000 C   0  0  0  0  0  0  0  0  0  0  0  0
   14.3292   -1.9167    0.0000 C   0  0  0  0  0  0  0  0  0  0  0  0
   10.9542    1.4125    0.0000 C   0  0  0  0  0  0  0  0  0  0  0  0
   15.0792    0.6625    0.0000 C   0  0  0  0  0  0  0  0  0  0  0  0
   15.4542    0.0125    0.0000 C   0  0  0  0  0  0  0  0  0  0  0  0
   10.5792    0.7625    0.0000 C   0  0  0  0  0  0  0  0  0  0  0  0
  2  1  1  0  0  0  0
  3  1  1  0  0  0  0
  4  3  1  0  0  0  0
  5  4  1  0  0  0  0
  6  2  1  0  0  0  0
  7  1  2  0  0  0  0
  8  5  1  0  0  0  0
  9  6  1  0  0  0  0
 10  2  2  0  0  0  0
 11  4  2  0  0  0  0
 12  5  2  0  0  0  0
 13  6  2  0  0  0  0
 14  8  1  0  0  0  0
 15  8  1  0  0  0  0
 16 10  1  0  0  0  0
 17 11  1  0  0  0  0
 18 17  2  0  0  0  0
 19 16  2  0  0  0  0
 13 19  1  0  0  0  0
 12 18  1  0  0  0  0
M  END
>  <ID> (5524554)
5524554

>  <Supplier> (5524554)
ChemBridge

>  <clogP> (5524554)
3.110000000000000e+000

>  <RB> (5524554)
2

>  <tPSA> (5524554)
2.910000000000000e+001

>  <Hacc> (5524554)
1

>  <Hdon> (5524554)
1

>  <LogSw> (5524554)
-3.733000000000000e+000

>  <Group> (5524554)
3

>  <Core> (5524554)
511

$$$$
9076586
  -ISIS-  03310818292D

 28 31  0  0  0  0  0  0  0  0999 V2000
    3.7292    1.8000    0.0000 N   0  0  3  0  0  0  0  0  0  0  0  0
    3.2875    1.1958    0.0000 C   0  0  0  0  0  0  0  0  0  0  0  0
    7.6292    2.2833    0.0000 C   0  0  0  0  0  0  0  0  0  0  0  0
    3.7292    0.5875    0.0000 N   0  0  0  0  0  0  0  0  0  0  0  0
    4.4417    1.5708    0.0000 C   0  0  0  0  0  0  0  0  0  0  0  0
    4.4417    0.8208    0.0000 N   0  0  0  0  0  0  0  0  0  0  0  0
    8.3417    2.0500    0.0000 N   0  0  0  0  0  0  0  0  0  0  0  0
    7.6292    3.0333    0.0000 S   0  0  0  0  0  0  0  0  0  0  0  0
    7.0250    1.8458    0.0000 N   0  0  0  0  0  0  0  0  0  0  0  0
    8.7875    2.6583    0.0000 C   0  0  0  0  0  0  0  0  0  0  0  0
    8.3417    3.2708    0.0000 C   0  0  0  0  0  0  0  0  0  0  0  0
    2.5375    1.1958    0.0000 C   0  0  0  0  0  0  0  0  0  0  0  0
    5.0500    2.0208    0.0000 S   0  0  0  0  0  0  0  0  0  0  0  0
    1.4125    1.8458    0.0000 C   0  0  0  0  0  0  0  0  0  0  0  0
    6.3417    2.1458    0.0000 C   0  0  0  0  0  0  0  0  0  0  0  0
    2.1625    1.8458    0.0000 C   0  0  0  0  0  0  0  0  0  0  0  0
    1.0375    1.1958    0.0000 C   0  0  0  0  0  0  0  0  0  0  0  0
    0.9125    2.4000    0.0000 O   0  0  0  0  0  0  0  0  0  0  0  0
    0.3042    1.3500    0.0000 O   0  0  0  0  0  0  0  0  0  0  0  0
    0.2250    2.0958    0.0000 C   0  0  0  0  0  0  0  0  0  0  0  0
    2.1625    0.5458    0.0000 C   0  0  0  0  0  0  0  0  0  0  0  0
    6.2625    2.8958    0.0000 O   0  0  0  0  0  0  0  0  0  0  0  0
    1.4125    0.5458    0.0000 C   0  0  0  0  0  0  0  0  0  0  0  0
    5.7292    1.7083    0.0000 C   0  0  0  0  0  0  0  0  0  0  0  0
    3.4917    2.5208    0.0000 C   0  0  0  0  0  0  0  0  0  0  0  0
    9.5375    2.6583    0.0000 C   0  0  0  0  0  0  0  0  0  0  0  0
    8.5792    3.9833    0.0000 C   0  0  0  0  0  0  0  0  0  0  0  0
    4.0000    3.0708    0.0000 C   0  0  0  0  0  0  0  0  0  0  0  0
  2  1  1  0  0  0  0
  3  9  1  0  0  0  0
  4  2  2  0  0  0  0
  5  1  1  0  0  0  0
  6  5  2  0  0  0  0
  7  3  2  0  0  0  0
  8  3  1  0  0  0  0
  9 15  1  0  0  0  0
 10  7  1  0  0  0  0
 11  8  1  0  0  0  0
 12  2  1  0  0  0  0
 13  5  1  0  0  0  0
 14 16  2  0  0  0  0
 15 24  1  0  0  0  0
 16 12  1  0  0  0  0
 17 23  2  0  0  0  0
 18 14  1  0  0  0  0
 19 17  1  0  0  0  0
 20 18  1  0  0  0  0
 21 12  2  0  0  0  0
 22 15  2  0  0  0  0
 23 21  1  0  0  0  0
 24 13  1  0  0  0  0
 25  1  1  0  0  0  0
 26 10  1  0  0  0  0
 27 11  1  0  0  0  0
 28 25  1  0  0  0  0
  6  4  1  0  0  0  0
 14 17  1  0  0  0  0
 19 20  1  0  0  0  0
 10 11  2  0  0  0  0
M  END
>  <ID> (9076586)
9076586

>  <Supplier> (9076586)
ChemBridge

>  <clogP> (9076586)
2.635000000000000e+000

>  <RB> (9076586)
5

>  <tPSA> (9076586)
9.116000000000000e+001

>  <Hacc> (9076586)
6

>  <Hdon> (9076586)
1

>  <LogSw> (9076586)
-4.494000000000000e+000

>  <Group> (9076586)
2

>  <Core> (9076586)
550

$$$$
6860442
  -ISIS-  03310818242D

 26 29  0  0  0  0  0  0  0  0999 V2000
    2.8750    0.9500    0.0000 N   0  0  3  0  0  0  0  0  0  0  0  0
    2.6167    0.1625    0.0000 C   0  0  0  0  0  0  0  0  0  0  0  0
    2.2042    1.4333    0.0000 C   0  0  0  0  0  0  0  0  0  0  0  0
    1.5417    0.9500    0.0000 C   0  0  0  0  0  0  0  0  0  0  0  0
    1.7917    0.1625    0.0000 S   0  0  0  0  0  0  0  0  0  0  0  0
    0.1375    0.6500    0.0000 C   0  0  0  0  0  0  0  0  0  0  0  0
    0.7542    1.2083    0.0000 C   0  0  0  0  0  0  0  0  0  0  0  0
   -0.5833    1.0708    0.0000 C   0  0  0  0  0  0  0  0  0  0  0  0
   -0.5833   -0.5917    0.0000 O   0  0  0  0  0  0  0  0  0  0  0  0
    0.1375   -0.1792    0.0000 C   0  0  3  0  0  0  0  0  0  0  0  0
   -1.2958   -0.1792    0.0000 C   0  0  0  0  0  0  0  0  0  0  0  0
    3.6625    1.2083    0.0000 C   0  0  0  0  0  0  0  0  0  0  0  0
   -1.2958    0.6458    0.0000 C   0  0  0  0  0  0  0  0  0  0  0  0
    3.1042   -0.5042    0.0000 S   0  0  0  0  0  0  0  0  0  0  0  0
    2.2042    2.2583    0.0000 O   0  0  0  0  0  0  0  0  0  0  0  0
    4.2667    0.6500    0.0000 C   0  0  0  0  0  0  0  0  0  0  0  0
   -2.0125   -0.5917    0.0000 C   0  0  0  0  0  0  0  0  0  0  0  0
   -2.0083    1.0583    0.0000 C   0  0  0  0  0  0  0  0  0  0  0  0
    0.8542   -0.5875    0.0000 C   0  0  0  0  0  0  0  0  0  0  0  0
    5.0542    0.9083    0.0000 C   0  0  0  0  0  0  0  0  0  0  0  0
    4.0917   -0.1542    0.0000 C   0  0  0  0  0  0  0  0  0  0  0  0
   -2.7250   -0.1792    0.0000 C   0  0  0  0  0  0  0  0  0  0  0  0
   -2.7208    0.6458    0.0000 C   0  0  0  0  0  0  0  0  0  0  0  0
    4.7042   -0.7042    0.0000 C   0  0  0  0  0  0  0  0  0  0  0  0
    5.6667    0.3583    0.0000 C   0  0  0  0  0  0  0  0  0  0  0  0
    5.4917   -0.4542    0.0000 C   0  0  0  0  0  0  0  0  0  0  0  0
  2  1  1  0  0  0  0
  3  1  1  0  0  0  0
  4  3  1  0  0  0  0
  5  2  1  0  0  0  0
  6  7  1  0  0  0  0
  7  4  2  0  0  0  0
  8  6  2  0  0  0  0
  9 10  1  0  0  0  0
 10  6  1  0  0  0  0
 11  9  1  0  0  0  0
 12  1  1  0  0  0  0
 13  8  1  0  0  0  0
 14  2  2  0  0  0  0
 15  3  2  0  0  0  0
 16 12  1  0  0  0  0
 17 11  2  0  0  0  0
 18 13  2  0  0  0  0
 19 10  1  0  0  0  0
 20 16  1  0  0  0  0
 21 16  2  0  0  0  0
 22 17  1  0  0  0  0
 23 18  1  0  0  0  0
 24 21  1  0  0  0  0
 25 20  2  0  0  0  0
 26 24  2  0  0  0  0
  4  5  1  0  0  0  0
 26 25  1  0  0  0  0
 11 13  1  0  0  0  0
 22 23  2  0  0  0  0
M  END
>  <ID> (6860442)
6860442

>  <Supplier> (6860442)
ChemBridge

>  <clogP> (6860442)
3.820000000000000e+000

>  <RB> (6860442)
3

>  <tPSA> (6860442)
2.954000000000000e+001

>  <Hacc> (6860442)
2

>  <Hdon> (6860442)
0

>  <LogSw> (6860442)
-5.229000000000000e+000

>  <Group> (6860442)
2

>  <Core> (6860442)
001

$$$$
7117901
  -ISIS-  03310818252D

 30 33  0  0  0  0  0  0  0  0999 V2000
   -7.3375    3.7708    0.0000 C   0  0  3  0  0  0  0  0  0  0  0  0
  -10.2042    8.6792    0.0000 O   0  0  0  0  0  0  0  0  0  0  0  0
   -5.9083    6.2167    0.0000 C   0  0  0  0  0  0  0  0  0  0  0  0
  -10.2042    3.7708    0.0000 C   0  0  0  0  0  0  0  0  0  0  0  0
  -11.6792    6.2167    0.0000 C   0  0  0  0  0  0  0  0  0  0  0  0
   -7.3375    8.6792    0.0000 C   0  0  0  0  0  0  0  0  0  0  0  0
   -5.8458    1.2125    0.0000 C   0  0  0  0  0  0  0  0  0  0  0  0
   -2.9708    1.2125    0.0000 C   0  0  0  0  0  0  0  0  0  0  0  0
    9.9875   -6.2167    0.0000 C   0  0  0  0  0  0  0  0  0  0  0  0
    7.1167   -6.2167    0.0000 C   0  0  0  0  0  0  0  0  0  0  0  0
   -1.5333    3.6708    0.0000 O   0  0  0  0  0  0  0  0  0  0  0  0
   -1.5333   -1.2042    0.0000 N   0  0  0  0  0  0  0  0  0  0  0  0
   11.4292   -3.7542    0.0000 C   0  0  3  0  0  0  0  0  0  0  0  0
    5.6792   -3.7542    0.0000 O   0  0  0  0  0  0  0  0  0  0  0  0
   -3.0333    6.2167    0.0000 C   0  0  0  0  0  0  0  0  0  0  0  0
  -11.6792    1.2125    0.0000 C   0  0  0  0  0  0  0  0  0  0  0  0
   -5.9083   11.2375    0.0000 C   0  0  0  0  0  0  0  0  0  0  0  0
  -14.5542    6.2167    0.0000 C   0  0  0  0  0  0  0  0  0  0  0  0
   11.4292   -8.6792    0.0000 C   0  0  0  0  0  0  0  0  0  0  0  0
    5.6792   -8.6792    0.0000 C   0  0  0  0  0  0  0  0  0  0  0  0
    1.3667   -1.2042    0.0000 C   0  0  0  0  0  0  0  0  0  0  0  0
   10.0542   -1.2667    0.0000 C   0  0  0  0  0  0  0  0  0  0  0  0
   14.3000   -3.8000    0.0000 C   0  0  0  0  0  0  0  0  0  0  0  0
    2.8042   -3.7542    0.0000 C   0  0  0  0  0  0  0  0  0  0  0  0
  -14.5542    1.2125    0.0000 C   0  0  0  0  0  0  0  0  0  0  0  0
   -1.5333    8.6792    0.0000 C   0  0  0  0  0  0  0  0  0  0  0  0
   -3.0333   11.2375    0.0000 C   0  0  0  0  0  0  0  0  0  0  0  0
  -16.0000    3.7708    0.0000 C   0  0  0  0  0  0  0  0  0  0  0  0
    9.9875  -11.2375    0.0000 C   0  0  0  0  0  0  0  0  0  0  0  0
    7.1167  -11.2375    0.0000 C   0  0  0  0  0  0  0  0  0  0  0  0
  2  5  1  0  0  0  0
  3  1  1  0  0  0  0
  4  1  1  0  0  0  0
  5  4  2  0  0  0  0
  6  3  2  0  0  0  0
  7  1  1  0  0  0  0
  8  7  1  0  0  0  0
  9 10  2  0  0  0  0
 10 14  1  0  0  0  0
 11  8  2  0  0  0  0
 12  8  1  0  0  0  0
 13  9  1  0  0  0  0
 14 24  1  0  0  0  0
 15  3  1  0  0  0  0
 16  4  1  0  0  0  0
 17  6  1  0  0  0  0
 18  5  1  0  0  0  0
 19  9  1  0  0  0  0
 20 10  1  0  0  0  0
 21 12  1  0  0  0  0
 22 13  1  0  0  0  0
 23 13  1  0  0  0  0
 24 21  1  0  0  0  0
 25 16  2  0  0  0  0
 26 15  2  0  0  0  0
 27 26  1  0  0  0  0
 28 25  1  0  0  0  0
 29 30  1  0  0  0  0
 30 20  2  0  0  0  0
  6  2  1  0  0  0  0
 28 18  2  0  0  0  0
 17 27  2  0  0  0  0
 19 29  2  0  0  0  0
M  END
>  <ID> (7117901)
7117901

>  <Supplier> (7117901)
ChemBridge

>  <clogP> (7117901)
6.030000000000000e+000

>  <RB> (7117901)
6

>  <tPSA> (7117901)
4.756000000000000e+001

>  <Hacc> (7117901)
3

>  <Hdon> (7117901)
1

>  <LogSw> (7117901)
-8.387000000000002e+000

>  <Group> (7117901)
1

>  <Core> (7117901)
523

$$$$
7417756
  -ISIS-  03310818262D

 30 32  0  0  0  0  0  0  0  0999 V2000
    4.3500   -2.2292    0.0000 C   0  0  0  0  0  0  0  0  0  0  0  0
    5.0625   -1.8167    0.0000 C   0  0  0  0  0  0  0  0  0  0  0  0
    4.0750   -0.9250    0.0000 C   0  0  0  0  0  0  0  0  0  0  0  0
    3.7292   -1.6792    0.0000 S   0  0  0  0  0  0  0  0  0  0  0  0
    4.8917   -1.0042    0.0000 C   0  0  0  0  0  0  0  0  0  0  0  0
    4.2625   -3.0500    0.0000 N   0  0  0  0  0  0  0  0  0  0  0  0
    3.5042   -3.3875    0.0000 C   0  0  0  0  0  0  0  0  0  0  0  0
    5.8167   -2.1542    0.0000 C   0  0  0  0  0  0  0  0  0  0  0  0
    3.6625   -0.2125    0.0000 C   0  0  0  0  0  0  0  0  0  0  0  0
    3.4167   -4.2042    0.0000 C   0  0  0  0  0  0  0  0  0  0  0  0
    5.4417   -0.3917    0.0000 O   0  0  0  0  0  0  0  0  0  0  0  0
    2.8417   -2.9000    0.0000 O   0  0  0  0  0  0  0  0  0  0  0  0
    5.9042   -2.9750    0.0000 O   0  0  0  0  0  0  0  0  0  0  0  0
    2.8375   -0.2167    0.0000 C   0  0  0  0  0  0  0  0  0  0  0  0
    2.6667   -4.5292    0.0000 C   0  0  0  0  0  0  0  0  0  0  0  0
    4.0917   -4.6792    0.0000 C   0  0  0  0  0  0  0  0  0  0  0  0
    6.4792   -1.6667    0.0000 O   0  0  0  0  0  0  0  0  0  0  0  0
    1.1917   -0.2167    0.0000 C   0  0  0  0  0  0  0  0  0  0  0  0
    3.2417   -5.8417    0.0000 C   0  0  0  0  0  0  0  0  0  0  0  0
    4.0000   -5.5042    0.0000 C   0  0  0  0  0  0  0  0  0  0  0  0
    2.5792   -5.3500    0.0000 C   0  0  0  0  0  0  0  0  0  0  0  0
    0.3792   -0.2292    0.0000 F   0  0  0  0  0  0  0  0  0  0  0  0
    2.4292   -0.9292    0.0000 C   0  0  0  0  0  0  0  0  0  0  0  0
    2.4250    0.4958    0.0000 C   0  0  0  0  0  0  0  0  0  0  0  0
    1.6125   -0.9375    0.0000 C   0  0  0  0  0  0  0  0  0  0  0  0
    1.6042    0.4875    0.0000 C   0  0  0  0  0  0  0  0  0  0  0  0
    3.1542   -6.6542    0.0000 O   0  0  0  0  0  0  0  0  0  0  0  0
    7.2375   -2.0042    0.0000 C   0  0  0  0  0  0  0  0  0  0  0  0
    3.8167   -7.1417    0.0000 C   0  0  0  0  0  0  0  0  0  0  0  0
    7.9042   -1.5167    0.0000 C   0  0  0  0  0  0  0  0  0  0  0  0
  2  1  2  0  0  0  0
  3  4  1  0  0  0  0
  4  1  1  0  0  0  0
  5  2  1  0  0  0  0
  6  1  1  0  0  0  0
  7  6  1  0  0  0  0
  8  2  1  0  0  0  0
  9  3  2  0  0  0  0
 10  7  1  0  0  0  0
 11  5  2  0  0  0  0
 12  7  2  0  0  0  0
 13  8  2  0  0  0  0
 14  9  1  0  0  0  0
 15 10  2  0  0  0  0
 16 10  1  0  0  0  0
 17  8  1  0  0  0  0
 18 26  2  0  0  0  0
 19 20  1  0  0  0  0
 20 16  2  0  0  0  0
 21 15  1  0  0  0  0
 22 18  1  0  0  0  0
 23 14  1  0  0  0  0
 24 14  2  0  0  0  0
 25 23  2  0  0  0  0
 26 24  1  0  0  0  0
 27 19  1  0  0  0  0
 28 17  1  0  0  0  0
 29 27  1  0  0  0  0
 30 28  1  0  0  0  0
  5  3  1  0  0  0  0
 21 19  2  0  0  0  0
 18 25  1  0  0  0  0
M  END
>  <ID> (7417756)
7417756

>  <Supplier> (7417756)
ChemBridge

>  <clogP> (7417756)
3.826000000000000e+000

>  <RB> (7417756)
4

>  <tPSA> (7417756)
8.170000000000000e+001

>  <Hacc> (7417756)
5

>  <Hdon> (7417756)
1

>  <LogSw> (7417756)
-5.521999999999999e+000

>  <Group> (7417756)
2

>  <Core> (7417756)
286

$$$$
5757320
  -ISIS-  03310818222D

 23 24  0  0  0  0  0  0  0  0999 V2000
    1.5500   -0.0292    0.0000 C   0  0  0  0  0  0  0  0  0  0  0  0
    0.8375    0.3708    0.0000 C   0  0  0  0  0  0  0  0  0  0  0  0
    4.4042   -0.0167    0.0000 N   0  0  0  0  0  0  0  0  0  0  0  0
    3.7000    0.3833    0.0000 C   0  0  0  0  0  0  0  0  0  0  0  0
    5.1167   -0.4375    0.0000 C   0  0  0  0  0  0  0  0  0  0  0  0
    0.1167   -0.0292    0.0000 C   0  0  0  0  0  0  0  0  0  0  0  0
    0.8292    1.1958    0.0000 C   0  0  3  0  0  0  0  0  0  0  0  0
    2.2542    0.3708    0.0000 O   0  0  0  0  0  0  0  0  0  0  0  0
    1.5500   -0.8542    0.0000 C   0  0  0  0  0  0  0  0  0  0  0  0
    5.8375   -0.0167    0.0000 C   0  0  0  0  0  0  0  0  0  0  0  0
    3.6875    1.2000    0.0000 O   0  0  0  0  0  0  0  0  0  0  0  0
    2.9792   -0.0167    0.0000 C   0  0  0  0  0  0  0  0  0  0  0  0
    0.1167   -0.8542    0.0000 C   0  0  0  0  0  0  0  0  0  0  0  0
    0.8375   -1.2667    0.0000 C   0  0  0  0  0  0  0  0  0  0  0  0
    5.8292    0.7958    0.0000 F   0  0  0  0  0  0  0  0  0  0  0  0
    1.6292    0.9833    0.0000 C   0  0  0  0  0  0  0  0  0  0  0  0
    1.5500    1.6000    0.0000 C   0  0  0  0  0  0  0  0  0  0  0  0
    0.1167    1.6000    0.0000 C   0  0  0  0  0  0  0  0  0  0  0  0
    5.1167   -1.2542    0.0000 C   0  0  0  0  0  0  0  0  0  0  0  0
    6.5500   -0.4292    0.0000 C   0  0  0  0  0  0  0  0  0  0  0  0
    0.8375   -2.1000    0.0000 C   0  0  0  0  0  0  0  0  0  0  0  0
    5.8500   -1.6667    0.0000 C   0  0  0  0  0  0  0  0  0  0  0  0
    6.5542   -1.2542    0.0000 C   0  0  0  0  0  0  0  0  0  0  0  0
  2  1  2  0  0  0  0
  3  4  1  0  0  0  0
  4 12  1  0  0  0  0
  5  3  1  0  0  0  0
  6  2  1  0  0  0  0
  7  2  1  0  0  0  0
  8  1  1  0  0  0  0
  9  1  1  0  0  0  0
 10  5  2  0  0  0  0
 11  4  2  0  0  0  0
 12  8  1  0  0  0  0
 13 14  1  0  0  0  0
 14  9  2  0  0  0  0
 15 10  1  0  0  0  0
 16  7  1  0  0  0  0
 17  7  1  0  0  0  0
 18  7  1  0  0  0  0
 19  5  1  0  0  0  0
 20 10  1  0  0  0  0
 21 14  1  0  0  0  0
 22 19  2  0  0  0  0
 23 22  1  0  0  0  0
 13  6  2  0  0  0  0
 20 23  2  0  0  0  0
M  END
>  <ID> (5757320)
5757320

>  <Supplier> (5757320)
ChemBridge

>  <clogP> (5757320)
4.800000000000000e+000

>  <RB> (5757320)
5

>  <tPSA> (5757320)
3.833000000000000e+001

>  <Hacc> (5757320)
2

>  <Hdon> (5757320)
1

>  <LogSw> (5757320)
-5.599000000000000e+000

>  <Group> (5757320)
2

>  <Core> (5757320)
315

$$$$
7417751
  -ISIS-  03310818262D

 22 24  0  0  0  0  0  0  0  0999 V2000
    5.8042    1.0125    0.0000 N   0  0  3  0  0  0  0  0  0  0  0  0
    6.6292    1.0125    0.0000 C   0  0  0  0  0  0  0  0  0  0  0  0
    6.2250   -0.2542    0.0000 C   0  0  0  0  0  0  0  0  0  0  0  0
    5.5542    0.2250    0.0000 C   0  0  0  0  0  0  0  0  0  0  0  0
    6.8917    0.2333    0.0000 S   0  0  0  0  0  0  0  0  0  0  0  0
    6.2292   -1.0792    0.0000 C   0  0  0  0  0  0  0  0  0  0  0  0
    5.5167   -1.5000    0.0000 C   0  0  0  0  0  0  0  0  0  0  0  0
    4.8000   -2.7417    0.0000 C   0  0  0  0  0  0  0  0  0  0  0  0
    4.0875   -2.3292    0.0000 C   0  0  0  0  0  0  0  0  0  0  0  0
    4.0875   -1.5042    0.0000 C   0  0  0  0  0  0  0  0  0  0  0  0
    5.5167   -2.3292    0.0000 C   0  0  0  0  0  0  0  0  0  0  0  0
    7.1125    1.6833    0.0000 S   0  0  0  0  0  0  0  0  0  0  0  0
    4.8000   -1.0875    0.0000 C   0  0  0  0  0  0  0  0  0  0  0  0
    3.3042   -2.5792    0.0000 O   0  0  0  0  0  0  0  0  0  0  0  0
    3.3042   -1.2500    0.0000 O   0  0  0  0  0  0  0  0  0  0  0  0
    4.7667   -0.0292    0.0000 O   0  0  0  0  0  0  0  0  0  0  0  0
    2.8167   -1.9167    0.0000 C   0  0  0  0  0  0  0  0  0  0  0  0
    5.3250    1.6833    0.0000 C   0  0  0  0  0  0  0  0  0  0  0  0
    5.6542    2.4333    0.0000 C   0  0  0  0  0  0  0  0  0  0  0  0
    5.1750    3.1083    0.0000 C   0  0  0  0  0  0  0  0  0  0  0  0
    6.2292   -2.7417    0.0000 O   0  0  0  0  0  0  0  0  0  0  0  0
    6.2292   -3.5667    0.0000 C   0  0  0  0  0  0  0  0  0  0  0  0
  2  1  1  0  0  0  0
  3  4  1  0  0  0  0
  4  1  1  0  0  0  0
  5  2  1  0  0  0  0
  6  3  2  0  0  0  0
  7  6  1  0  0  0  0
  8 11  2  0  0  0  0
  9 10  2  0  0  0  0
 10 13  1  0  0  0  0
 11  7  1  0  0  0  0
 12  2  2  0  0  0  0
 13  7  2  0  0  0  0
 14  9  1  0  0  0  0
 15 10  1  0  0  0  0
 16  4  2  0  0  0  0
 17 15  1  0  0  0  0
 18  1  1  0  0  0  0
 19 18  1  0  0  0  0
 20 19  2  0  0  0  0
 21 11  1  0  0  0  0
 22 21  1  0  0  0  0
  3  5  1  0  0  0  0
  9  8  1  0  0  0  0
 17 14  1  0  0  0  0
M  END
>  <ID> (7417751)
7417751

>  <Supplier> (7417751)
ChemBridge

>  <clogP> (7417751)
2.469000000000000e+000

>  <RB> (7417751)
3

>  <tPSA> (7417751)
4.800000000000000e+001

>  <Hacc> (7417751)
4

>  <Hdon> (7417751)
0

>  <LogSw> (7417751)
-3.815000000000000e+000

>  <Group> (7417751)
1

>  <Core> (7417751)
001

$$$$
7117909
  -ISIS-  03310818252D

 19 20  0  0  0  0  0  0  0  0999 V2000
    2.2500    4.9542    0.0000 N   0  0  3  0  0  0  0  0  0  0  0  0
    3.6875    5.9000    0.0000 C   0  0  0  0  0  0  0  0  0  0  0  0
    0.8167    5.9000    0.0000 C   0  0  0  0  0  0  0  0  0  0  0  0
    3.6875    7.5792    0.0000 C   0  0  0  0  0  0  0  0  0  0  0  0
    0.8167    7.5792    0.0000 N   0  0  0  0  0  0  0  0  0  0  0  0
    2.2500    8.4792    0.0000 C   0  0  0  0  0  0  0  0  0  0  0  0
    4.7500    8.1542    0.0000 S   0  3  3  0  0  0  0  0  0  0  0  0
    2.2500    3.6958    0.0000 C   0  0  0  0  0  0  0  0  0  0  0  0
    5.1625    4.9542    0.0000 O   0  5  0  0  0  0  0  0  0  0  0  0
    0.0000    4.9542    0.0000 O   0  0  0  0  0  0  0  0  0  0  0  0
    2.2500    9.7500    0.0000 O   0  0  0  0  0  0  0  0  0  0  0  0
    3.3167    3.0833    0.0000 C   0  0  0  0  0  0  0  0  0  0  0  0
    1.1875    3.0833    0.0000 C   0  0  0  0  0  0  0  0  0  0  0  0
    2.2500    1.2333    0.0000 C   0  0  0  0  0  0  0  0  0  0  0  0
    1.1875    1.8458    0.0000 C   0  0  0  0  0  0  0  0  0  0  0  0
    3.3167    1.8458    0.0000 C   0  0  0  0  0  0  0  0  0  0  0  0
    2.2500    0.0000    0.0000 F   0  0  0  0  0  0  0  0  0  0  0  0
    5.8167    7.5292    0.0000 C   0  0  0  0  0  0  0  0  0  0  0  0
    4.7917    9.3792    0.0000 C   0  0  0  0  0  0  0  0  0  0  0  0
  2  1  1  0  0  0  0
  3  1  1  0  0  0  0
  4  2  2  0  0  0  0
  5  3  1  0  0  0  0
  6  5  1  0  0  0  0
  7  4  1  0  0  0  0
  8  1  1  0  0  0  0
  9  2  1  0  0  0  0
 10  3  2  0  0  0  0
 11  6  2  0  0  0  0
 12  8  1  0  0  0  0
 13  8  2  0  0  0  0
 14 15  2  0  0  0  0
 15 13  1  0  0  0  0
 16 12  2  0  0  0  0
 17 14  1  0  0  0  0
 18  7  1  0  0  0  0
 19  7  1  0  0  0  0
 16 14  1  0  0  0  0
  4  6  1  0  0  0  0
M  CHG  2   7   1   9  -1
M  END
>  <ID> (7117909)
7117909

>  <Supplier> (7117909)
ChemBridge

>  <clogP> (7117909)
-2.000000000000000e-002

>  <RB> (7117909)
2

>  <tPSA> (7117909)
7.792000000000000e+001

>  <Hacc> (7117909)
3

>  <Hdon> (7117909)
1

>  <LogSw> (7117909)
-2.567000000000000e+000

>  <Group> (7117909)
3

$$$$
7695000
  -ISIS-  03310818262D

 19 20  0  0  0  0  0  0  0  0999 V2000
    6.0792   -4.1167    0.0000 N   0  0  0  0  0  0  0  0  0  0  0  0
    6.2375   -2.7042    0.0000 N   0  0  0  0  0  0  0  0  0  0  0  0
    6.5667   -3.4542    0.0000 C   0  0  0  0  0  0  0  0  0  0  0  0
    5.4167   -2.6167    0.0000 C   0  0  0  0  0  0  0  0  0  0  0  0
    5.2667   -4.0375    0.0000 C   0  0  0  0  0  0  0  0  0  0  0  0
    4.9375   -3.2792    0.0000 C   0  0  0  0  0  0  0  0  0  0  0  0
    7.3875   -3.5417    0.0000 S   0  0  0  0  0  0  0  0  0  0  0  0
    8.6292   -4.2500    0.0000 C   0  0  0  0  0  0  0  0  0  0  0  0
    9.4625   -4.2375    0.0000 C   0  0  0  0  0  0  0  0  0  0  0  0
    8.2125   -3.5417    0.0000 C   0  0  0  0  0  0  0  0  0  0  0  0
    8.2250   -4.9625    0.0000 O   0  0  0  0  0  0  0  0  0  0  0  0
    9.8542   -3.5167    0.0000 C   0  0  0  0  0  0  0  0  0  0  0  0
    9.8792   -4.9542    0.0000 C   0  0  0  0  0  0  0  0  0  0  0  0
    5.0917   -1.8667    0.0000 N   0  0  0  0  0  0  0  0  0  0  0  0
    4.7875   -4.7000    0.0000 N   0  0  0  0  0  0  0  0  0  0  0  0
   11.1042   -4.2167    0.0000 C   0  0  0  0  0  0  0  0  0  0  0  0
   10.6792   -3.5042    0.0000 C   0  0  0  0  0  0  0  0  0  0  0  0
   10.7000   -4.9417    0.0000 C   0  0  0  0  0  0  0  0  0  0  0  0
   11.9375   -4.2042    0.0000 Cl  0  0  0  0  0  0  0  0  0  0  0  0
  2  3  2  0  0  0  0
  3  1  1  0  0  0  0
  4  6  2  0  0  0  0
  5  1  2  0  0  0  0
  6  5  1  0  0  0  0
  7  3  1  0  0  0  0
  8 10  1  0  0  0  0
  9  8  1  0  0  0  0
 10  7  1  0  0  0  0
 11  8  2  0  0  0  0
 12  9  1  0  0  0  0
 13  9  2  0  0  0  0
 14  4  1  0  0  0  0
 15  5  1  0  0  0  0
 16 18  2  0  0  0  0
 17 12  2  0  0  0  0
 18 13  1  0  0  0  0
 19 16  1  0  0  0  0
  4  2  1  0  0  0  0
 17 16  1  0  0  0  0
M  END
>  <ID> (7695000)
7695000

>  <Supplier> (7695000)
ChemBridge

>  <clogP> (7695000)
2.613000000000000e+000

>  <RB> (7695000)
4

>  <tPSA> (7695000)
9.489000000000003e+001

>  <Hacc> (7695000)
3

>  <Hdon> (7695000)
2

>  <LogSw> (7695000)
-1.977000000000000e+000

>  <Group> (7695000)
3

>  <Core> (7695000)
036

$$$$
6023649
  -ISIS-  03310818232D

 28 32  0  0  0  0  0  0  0  0999 V2000
    1.3625   -3.0292    0.0000 N   0  0  3  0  0  0  0  0  0  0  0  0
    0.7167   -2.5750    0.0000 C   0  0  0  0  0  0  0  0  0  0  0  0
    2.0792   -2.7000    0.0000 C   0  0  0  0  0  0  0  0  0  0  0  0
    2.1542   -1.9167    0.0000 C   0  0  0  0  0  0  0  0  0  0  0  0
    4.8542   -2.4500    0.0000 N   0  0  3  0  0  0  0  0  0  0  0  0
    0.0792   -3.0542    0.0000 N   0  0  0  0  0  0  0  0  0  0  0  0
    3.5792   -2.0500    0.0000 C   0  0  0  0  0  0  0  0  0  0  0  0
    1.5042   -1.4625    0.0000 S   0  0  0  0  0  0  0  0  0  0  0  0
    4.3667   -3.1167    0.0000 C   0  0  0  0  0  0  0  0  0  0  0  0
    4.3667   -1.7875    0.0000 C   0  0  0  0  0  0  0  0  0  0  0  0
    2.9042   -1.5667    0.0000 C   0  0  0  0  0  0  0  0  0  0  0  0
    3.5875   -2.8667    0.0000 C   0  0  0  0  0  0  0  0  0  0  0  0
    1.1167   -3.7792    0.0000 C   0  0  0  0  0  0  0  0  0  0  0  0
    0.3292   -3.7917    0.0000 C   0  0  0  0  0  0  0  0  0  0  0  0
    5.6792   -2.4500    0.0000 C   0  0  0  0  0  0  0  0  0  0  0  0
    2.7167   -3.1542    0.0000 O   0  0  0  0  0  0  0  0  0  0  0  0
    6.0875   -1.7375    0.0000 C   0  0  0  0  0  0  0  0  0  0  0  0
    6.0917   -3.1667    0.0000 C   0  0  0  0  0  0  0  0  0  0  0  0
    7.3292   -2.4542    0.0000 C   0  0  0  0  0  0  0  0  0  0  0  0
    4.6292   -3.9000    0.0000 C   0  0  0  0  0  0  0  0  0  0  0  0
    4.6167   -1.0000    0.0000 C   0  0  0  0  0  0  0  0  0  0  0  0
    6.9125   -3.1667    0.0000 C   0  0  0  0  0  0  0  0  0  0  0  0
    6.9167   -1.7417    0.0000 C   0  0  0  0  0  0  0  0  0  0  0  0
    8.1542   -2.4542    0.0000 Cl  0  0  0  0  0  0  0  0  0  0  0  0
    1.5167   -4.4542    0.0000 C   0  0  0  0  0  0  0  0  0  0  0  0
   -0.0583   -4.4750    0.0000 C   0  0  0  0  0  0  0  0  0  0  0  0
    1.1375   -5.1417    0.0000 C   0  0  0  0  0  0  0  0  0  0  0  0
    0.3500   -5.1500    0.0000 C   0  0  0  0  0  0  0  0  0  0  0  0
  2  1  1  0  0  0  0
  3  1  1  0  0  0  0
  4  3  1  0  0  0  0
  5 10  1  0  0  0  0
  6  2  2  0  0  0  0
  7 11  1  0  0  0  0
  8  2  1  0  0  0  0
  9 12  2  0  0  0  0
 10  7  2  0  0  0  0
 11  4  2  0  0  0  0
 12  7  1  0  0  0  0
 13  1  1  0  0  0  0
 14 13  2  0  0  0  0
 15  5  1  0  0  0  0
 16  3  2  0  0  0  0
 17 15  1  0  0  0  0
 18 15  2  0  0  0  0
 19 22  2  0  0  0  0
 20  9  1  0  0  0  0
 21 10  1  0  0  0  0
 22 18  1  0  0  0  0
 23 17  2  0  0  0  0
 24 19  1  0  0  0  0
 25 13  1  0  0  0  0
 26 14  1  0  0  0  0
 27 25  2  0  0  0  0
 28 27  1  0  0  0  0
 14  6  1  0  0  0  0
  8  4  1  0  0  0  0
 28 26  2  0  0  0  0
  5  9  1  0  0  0  0
 19 23  1  0  0  0  0
M  END
>  <ID> (6023649)
6023649

>  <Supplier> (6023649)
ChemBridge

>  <clogP> (6023649)
5.400000000000000e+000

>  <RB> (6023649)
2

>  <tPSA> (6023649)
3.930000000000000e+001

>  <Hacc> (6023649)
4

>  <Hdon> (6023649)
0

>  <LogSw> (6023649)
-6.771000000000002e+000

>  <Group> (6023649)
1

>  <Core> (6023649)
032

$$$$
7695002
  -ISIS-  03310818262D

 31 33  0  0  0  0  0  0  0  0999 V2000
    4.2250    1.9750    0.0000 N   0  0  3  0  0  0  0  0  0  0  0  0
    4.4792    2.7708    0.0000 C   0  0  0  0  0  0  0  0  0  0  0  0
    5.3125    2.7750    0.0000 N   0  0  0  0  0  0  0  0  0  0  0  0
    4.9042    1.4833    0.0000 C   0  0  0  0  0  0  0  0  0  0  0  0
    5.5792    1.9833    0.0000 N   0  0  0  0  0  0  0  0  0  0  0  0
    4.6125    4.9625    0.0000 C   0  0  0  0  0  0  0  0  0  0  0  0
    4.8375    4.1542    0.0000 N   0  0  0  0  0  0  0  0  0  0  0  0
    4.2542    3.5708    0.0000 C   0  0  3  0  0  0  0  0  0  0  0  0
    4.9042    0.6500    0.0000 S   0  0  0  0  0  0  0  0  0  0  0  0
    3.2125    0.4875    0.0000 C   0  0  0  0  0  0  0  0  0  0  0  0
    3.8042    5.1667    0.0000 C   0  0  0  0  0  0  0  0  0  0  0  0
    2.4917    0.0708    0.0000 N   0  0  0  0  0  0  0  0  0  0  0  0
    5.1917    5.5542    0.0000 O   0  0  0  0  0  0  0  0  0  0  0  0
    3.2042    1.3208    0.0000 O   0  0  0  0  0  0  0  0  0  0  0  0
    3.4292    1.7208    0.0000 C   0  0  0  0  0  0  0  0  0  0  0  0
    3.9292    0.0750    0.0000 C   0  0  0  0  0  0  0  0  0  0  0  0
    3.5750    5.9667    0.0000 C   0  0  0  0  0  0  0  0  0  0  0  0
    3.2167    4.5667    0.0000 C   0  0  0  0  0  0  0  0  0  0  0  0
    2.4917   -0.7542    0.0000 C   0  0  0  0  0  0  0  0  0  0  0  0
    2.1792    5.5792    0.0000 C   0  0  0  0  0  0  0  0  0  0  0  0
    2.4917   -2.4167    0.0000 C   0  0  0  0  0  0  0  0  0  0  0  0
    2.7667    6.1792    0.0000 C   0  0  0  0  0  0  0  0  0  0  0  0
    2.4042    4.7792    0.0000 C   0  0  0  0  0  0  0  0  0  0  0  0
    2.4917   -3.2417    0.0000 F   0  0  0  0  0  0  0  0  0  0  0  0
    1.3750    5.7917    0.0000 Cl  0  0  0  0  0  0  0  0  0  0  0  0
    1.7792   -1.1750    0.0000 C   0  0  0  0  0  0  0  0  0  0  0  0
    3.2042   -1.1750    0.0000 C   0  0  0  0  0  0  0  0  0  0  0  0
    3.2042   -2.0042    0.0000 C   0  0  0  0  0  0  0  0  0  0  0  0
    1.7792   -2.0042    0.0000 C   0  0  0  0  0  0  0  0  0  0  0  0
    3.4417    3.7708    0.0000 C   0  0  0  0  0  0  0  0  0  0  0  0
    2.8042    2.2750    0.0000 C   0  0  0  0  0  0  0  0  0  0  0  0
  2  1  1  0  0  0  0
  3  2  2  0  0  0  0
  4  1  1  0  0  0  0
  5  4  2  0  0  0  0
  6  7  1  0  0  0  0
  7  8  1  0  0  0  0
  8  2  1  0  0  0  0
  9  4  1  0  0  0  0
 10 16  1  0  0  0  0
 11  6  1  0  0  0  0
 12 10  1  0  0  0  0
 13  6  2  0  0  0  0
 14 10  2  0  0  0  0
 15  1  1  0  0  0  0
 16  9  1  0  0  0  0
 17 11  1  0  0  0  0
 18 11  2  0  0  0  0
 19 12  1  0  0  0  0
 20 23  2  0  0  0  0
 21 28  2  0  0  0  0
 22 17  2  0  0  0  0
 23 18  1  0  0  0  0
 24 21  1  0  0  0  0
 25 20  1  0  0  0  0
 26 19  1  0  0  0  0
 27 19  2  0  0  0  0
 28 27  1  0  0  0  0
 29 26  2  0  0  0  0
 30  8  1  0  0  0  0
 31 15  1  0  0  0  0
  5  3  1  0  0  0  0
 22 20  1  0  0  0  0
 29 21  1  0  0  0  0
M  END
>  <ID> (7695002)
7695002

>  <Supplier> (7695002)
ChemBridge

>  <clogP> (7695002)
2.977000000000000e+000

>  <RB> (7695002)
7

>  <tPSA> (7695002)
8.891000000000000e+001

>  <Hacc> (7695002)
5

>  <Hdon> (7695002)
2

>  <LogSw> (7695002)
-5.870000000000000e+000

>  <Group> (7695002)
1

>  <Core> (7695002)
009

$$$$
7409040
  -ISIS-  03310818262D

 27 29  0  0  0  0  0  0  0  0999 V2000
    0.2292   -1.9042    0.0000 S   0  0  3  0  0  0  0  0  0  0  0  0
    0.8042   -0.9292    0.0000 C   0  0  3  0  0  0  0  0  0  0  0  0
    0.8875   -1.6292    0.0000 C   0  0  0  0  0  0  0  0  0  0  0  0
    0.1042   -0.7667    0.0000 C   0  0  0  0  0  0  0  0  0  0  0  0
    1.3875   -0.5042    0.0000 N   0  0  3  0  0  0  0  0  0  0  0  0
   -0.2500   -1.3875    0.0000 C   0  0  0  0  0  0  0  0  0  0  0  0
    1.3292    0.2125    0.0000 C   0  0  0  0  0  0  0  0  0  0  0  0
   -0.4708   -2.1292    0.0000 O   0  0  0  0  0  0  0  0  0  0  0  0
    0.5500   -2.5500    0.0000 O   0  0  0  0  0  0  0  0  0  0  0  0
    3.0667    1.4958    0.0000 C   0  0  0  0  0  0  0  0  0  0  0  0
    2.0292   -0.8042    0.0000 C   0  0  0  0  0  0  0  0  0  0  0  0
    2.4042    1.7958    0.0000 C   0  0  0  0  0  0  0  0  0  0  0  0
    1.8292    1.3500    0.0000 O   0  0  0  0  0  0  0  0  0  0  0  0
    1.9042    0.6333    0.0000 C   0  0  0  0  0  0  0  0  0  0  0  0
    0.6667    0.5125    0.0000 O   0  0  0  0  0  0  0  0  0  0  0  0
    3.6500    1.9333    0.0000 C   0  0  0  0  0  0  0  0  0  0  0  0
    2.6167   -0.4000    0.0000 C   0  0  0  0  0  0  0  0  0  0  0  0
    2.0875   -1.5292    0.0000 C   0  0  0  0  0  0  0  0  0  0  0  0
    2.3292    2.4958    0.0000 C   0  0  0  0  0  0  0  0  0  0  0  0
    3.5667    2.6333    0.0000 C   0  0  0  0  0  0  0  0  0  0  0  0
    2.9042    2.9125    0.0000 C   0  0  0  0  0  0  0  0  0  0  0  0
    3.2667   -0.7042    0.0000 C   0  0  0  0  0  0  0  0  0  0  0  0
    2.7375   -1.8292    0.0000 C   0  0  0  0  0  0  0  0  0  0  0  0
    3.3292   -1.4167    0.0000 C   0  0  0  0  0  0  0  0  0  0  0  0
    3.1292    0.7708    0.0000 C   0  0  0  0  0  0  0  0  0  0  0  0
    4.1500    3.0708    0.0000 C   0  0  0  0  0  0  0  0  0  0  0  0
    3.9792   -1.7167    0.0000 C   0  0  0  0  0  0  0  0  0  0  0  0
  2  3  1  0  0  0  0
  3  1  1  0  0  0  0
  4  6  2  0  0  0  0
  5  2  1  0  0  0  0
  6  1  1  0  0  0  0
  7  5  1  0  0  0  0
  8  1  2  0  0  0  0
  9  1  2  0  0  0  0
 10 12  2  0  0  0  0
 11  5  1  0  0  0  0
 12 13  1  0  0  0  0
 13 14  1  0  0  0  0
 14  7  1  0  0  0  0
 15  7  2  0  0  0  0
 16 10  1  0  0  0  0
 17 11  1  0  0  0  0
 18 11  2  0  0  0  0
 19 12  1  0  0  0  0
 20 21  1  0  0  0  0
 21 19  2  0  0  0  0
 22 17  2  0  0  0  0
 23 18  1  0  0  0  0
 24 23  2  0  0  0  0
 25 10  1  0  0  0  0
 26 20  1  0  0  0  0
 27 24  1  0  0  0  0
  4  2  1  0  0  0  0
 22 24  1  0  0  0  0
 16 20  2  0  0  0  0
M  END
>  <ID> (7409040)
7409040

>  <Supplier> (7409040)
ChemBridge

>  <clogP> (7409040)
3.350000000000000e+000

>  <RB> (7409040)
5

>  <tPSA> (7409040)
6.367999999999998e+001

>  <Hacc> (7409040)
4

>  <Hdon> (7409040)
0

>  <LogSw> (7409040)
-4.105000000000000e+000

>  <Group> (7409040)
2

>  <Core> (7409040)
315

$$$$
7944161
  -ISIS-  03310818272D

 27 29  0  0  0  0  0  0  0  0999 V2000
   -0.2708    2.1333    0.0000 N   0  0  3  0  0  0  0  0  0  0  0  0
    0.8542    2.7833    0.0000 C   0  0  0  0  0  0  0  0  0  0  0  0
   -1.4208    2.5083    0.0000 C   0  0  0  0  0  0  0  0  0  0  0  0
   -0.7083    1.5250    0.0000 N   0  0  0  0  0  0  0  0  0  0  0  0
   -2.7125    2.6458    0.0000 C   0  0  0  0  0  0  0  0  0  0  0  0
   -0.7083    2.7375    0.0000 C   0  0  0  0  0  0  0  0  0  0  0  0
   -2.0250    2.9458    0.0000 N   0  0  0  0  0  0  0  0  0  0  0  0
   -1.4208    1.7583    0.0000 C   0  0  0  0  0  0  0  0  0  0  0  0
   -3.3208    3.0833    0.0000 C   0  0  0  0  0  0  0  0  0  0  0  0
    0.4792    2.1333    0.0000 C   0  0  0  0  0  0  0  0  0  0  0  0
   -3.2458    3.8333    0.0000 C   0  0  0  0  0  0  0  0  0  0  0  0
   -3.8458    4.2625    0.0000 C   0  0  0  0  0  0  0  0  0  0  0  0
    1.6042    2.7833    0.0000 C   0  0  0  0  0  0  0  0  0  0  0  0
    0.4792    3.4333    0.0000 C   0  0  0  0  0  0  0  0  0  0  0  0
   -4.5333    3.9625    0.0000 C   0  0  0  0  0  0  0  0  0  0  0  0
   -2.7958    1.8958    0.0000 O   0  0  0  0  0  0  0  0  0  0  0  0
   -4.0083    2.7750    0.0000 C   0  0  0  0  0  0  0  0  0  0  0  0
   -4.6125    3.2208    0.0000 C   0  0  0  0  0  0  0  0  0  0  0  0
    1.9792    2.1333    0.0000 Cl  0  0  0  0  0  0  0  0  0  0  0  0
   -0.2708    3.4333    0.0000 F   0  0  0  0  0  0  0  0  0  0  0  0
   -3.7708    5.0042    0.0000 O   0  0  0  0  0  0  0  0  0  0  0  0
   -5.1458    4.4000    0.0000 O   0  0  0  0  0  0  0  0  0  0  0  0
    1.6042    4.0750    0.0000 C   0  0  0  0  0  0  0  0  0  0  0  0
    1.9792    3.4333    0.0000 C   0  0  0  0  0  0  0  0  0  0  0  0
    0.8542    4.0750    0.0000 C   0  0  0  0  0  0  0  0  0  0  0  0
   -3.0833    5.3167    0.0000 C   0  0  0  0  0  0  0  0  0  0  0  0
   -5.8333    4.0917    0.0000 C   0  0  0  0  0  0  0  0  0  0  0  0
  2 10  1  0  0  0  0
  3  6  2  0  0  0  0
  4  1  1  0  0  0  0
  5  7  1  0  0  0  0
  6  1  1  0  0  0  0
  7  3  1  0  0  0  0
  8  4  2  0  0  0  0
  9  5  1  0  0  0  0
 10  1  1  0  0  0  0
 11  9  1  0  0  0  0
 12 11  2  0  0  0  0
 13  2  2  0  0  0  0
 14  2  1  0  0  0  0
 15 18  2  0  0  0  0
 16  5  2  0  0  0  0
 17  9  2  0  0  0  0
 18 17  1  0  0  0  0
 19 13  1  0  0  0  0
 20 14  1  0  0  0  0
 21 12  1  0  0  0  0
 22 15  1  0  0  0  0
 23 25  1  0  0  0  0
 24 13  1  0  0  0  0
 25 14  2  0  0  0  0
 26 21  1  0  0  0  0
 27 22  1  0  0  0  0
  3  8  1  0  0  0  0
 24 23  2  0  0  0  0
 15 12  1  0  0  0  0
M  END
>  <ID> (7944161)
7944161

>  <Supplier> (7944161)
ChemBridge

>  <clogP> (7944161)
3.530000000000000e+000

>  <RB> (7944161)
4

>  <tPSA> (7944161)
6.538000000000000e+001

>  <Hacc> (7944161)
4

>  <Hdon> (7944161)
1

>  <LogSw> (7944161)
-5.056000000000000e+000

>  <Group> (7944161)
2

>  <Core> (7944161)
322

$$$$
7944162
  -ISIS-  03310818272D

 24 25  0  0  0  0  0  0  0  0999 V2000
    2.3917    2.4958    0.0000 C   0  0  0  0  0  0  0  0  0  0  0  0
    3.0000    2.0500    0.0000 C   0  0  0  0  0  0  0  0  0  0  0  0
    0.4042    2.5333    0.0000 C   0  0  0  0  0  0  0  0  0  0  0  0
    3.6042    2.4958    0.0000 C   0  0  0  0  0  0  0  0  0  0  0  0
    3.3750    3.2083    0.0000 C   0  0  0  0  0  0  0  0  0  0  0  0
    2.6250    3.2083    0.0000 S   0  0  0  0  0  0  0  0  0  0  0  0
    1.1167    2.7708    0.0000 C   0  0  0  0  0  0  0  0  0  0  0  0
    1.6792    2.2708    0.0000 N   0  0  0  0  0  0  0  0  0  0  0  0
   -0.2000    2.9708    0.0000 C   0  0  0  0  0  0  0  0  0  0  0  0
    0.1750    1.8208    0.0000 C   0  0  0  0  0  0  0  0  0  0  0  0
   -0.5750    1.8208    0.0000 S   0  0  0  0  0  0  0  0  0  0  0  0
    3.0000    1.3000    0.0000 C   0  0  0  0  0  0  0  0  0  0  0  0
   -0.8083    2.5333    0.0000 C   0  0  0  0  0  0  0  0  0  0  0  0
    3.8125    3.8125    0.0000 C   0  0  0  0  0  0  0  0  0  0  0  0
    1.2792    3.4958    0.0000 O   0  0  0  0  0  0  0  0  0  0  0  0
    2.3500    0.9250    0.0000 O   0  0  0  0  0  0  0  0  0  0  0  0
    3.5042    4.4917    0.0000 O   0  0  0  0  0  0  0  0  0  0  0  0
    4.5625    3.7333    0.0000 N   0  0  0  0  0  0  0  0  0  0  0  0
    4.3167    2.2708    0.0000 C   0  0  0  0  0  0  0  0  0  0  0  0
    3.6500    0.9250    0.0000 O   0  0  0  0  0  0  0  0  0  0  0  0
   -0.2000    3.7208    0.0000 C   0  0  0  0  0  0  0  0  0  0  0  0
   -1.5208    2.7708    0.0000 C   0  0  0  0  0  0  0  0  0  0  0  0
    3.6500    0.1750    0.0000 C   0  0  0  0  0  0  0  0  0  0  0  0
   -0.8500    4.0917    0.0000 C   0  0  0  0  0  0  0  0  0  0  0  0
  2  1  2  0  0  0  0
  3  7  1  0  0  0  0
  4  2  1  0  0  0  0
  5  6  1  0  0  0  0
  6  1  1  0  0  0  0
  7  8  1  0  0  0  0
  8  1  1  0  0  0  0
  9  3  1  0  0  0  0
 10  3  2  0  0  0  0
 11 10  1  0  0  0  0
 12  2  1  0  0  0  0
 13  9  2  0  0  0  0
 14  5  1  0  0  0  0
 15  7  2  0  0  0  0
 16 12  2  0  0  0  0
 17 14  2  0  0  0  0
 18 14  1  0  0  0  0
 19  4  1  0  0  0  0
 20 12  1  0  0  0  0
 21  9  1  0  0  0  0
 22 13  1  0  0  0  0
 23 20  1  0  0  0  0
 24 21  1  0  0  0  0
  5  4  2  0  0  0  0
 13 11  1  0  0  0  0
M  END
>  <ID> (7944162)
7944162

>  <Supplier> (7944162)
ChemBridge

>  <clogP> (7944162)
2.515000000000000e+000

>  <RB> (7944162)
4

>  <tPSA> (7944162)
9.849000000000002e+001

>  <Hacc> (7944162)
4

>  <Hdon> (7944162)
2

>  <LogSw> (7944162)
-4.020000000000000e+000

>  <Group> (7944162)
3

>  <Core> (7944162)
269

$$$$
7695007
  -ISIS-  03310818262D

 30 33  0  0  0  0  0  0  0  0999 V2000
    6.1167   -0.1792    0.0000 C   0  0  0  0  0  0  0  0  0  0  0  0
    5.4667   -0.5542    0.0000 C   0  0  0  0  0  0  0  0  0  0  0  0
    0.2667   -2.8125    0.0000 C   0  0  0  0  0  0  0  0  0  0  0  0
    0.9167   -2.4375    0.0000 N   0  0  3  0  0  0  0  0  0  0  0  0
    6.8000   -0.4875    0.0000 O   0  0  0  0  0  0  0  0  0  0  0  0
    2.2167   -1.6875    0.0000 N   0  0  3  0  0  0  0  0  0  0  0  0
    7.3042    0.0708    0.0000 C   0  0  0  0  0  0  0  0  0  0  0  0
    6.1917    0.5625    0.0000 C   0  0  0  0  0  0  0  0  0  0  0  0
    4.8167   -0.1792    0.0000 N   0  0  0  0  0  0  0  0  0  0  0  0
    6.9292    0.7208    0.0000 C   0  0  0  0  0  0  0  0  0  0  0  0
   -0.3833   -2.4375    0.0000 C   0  0  0  0  0  0  0  0  0  0  0  0
    2.8667   -1.3125    0.0000 C   0  0  0  0  0  0  0  0  0  0  0  0
    1.5667   -2.8125    0.0000 C   0  0  0  0  0  0  0  0  0  0  0  0
    0.9167   -1.6875    0.0000 C   0  0  0  0  0  0  0  0  0  0  0  0
    2.2167   -2.4375    0.0000 C   0  0  0  0  0  0  0  0  0  0  0  0
    1.5667   -1.3125    0.0000 C   0  0  0  0  0  0  0  0  0  0  0  0
    0.2667   -3.5625    0.0000 O   0  0  0  0  0  0  0  0  0  0  0  0
    5.4667   -1.3042    0.0000 O   0  0  0  0  0  0  0  0  0  0  0  0
    3.5125   -1.6875    0.0000 C   0  0  0  0  0  0  0  0  0  0  0  0
    2.8667   -0.5542    0.0000 C   0  0  0  0  0  0  0  0  0  0  0  0
   -1.0333   -2.8125    0.0000 C   0  0  0  0  0  0  0  0  0  0  0  0
   -0.3833   -1.6875    0.0000 C   0  0  0  0  0  0  0  0  0  0  0  0
    4.1667   -0.5542    0.0000 C   0  0  0  0  0  0  0  0  0  0  0  0
    8.0500   -0.0125    0.0000 Br  0  0  0  0  0  0  0  0  0  0  0  0
    4.1667   -1.3125    0.0000 C   0  0  0  0  0  0  0  0  0  0  0  0
    3.5125   -0.1792    0.0000 C   0  0  0  0  0  0  0  0  0  0  0  0
   -1.6833   -2.4375    0.0000 C   0  0  0  0  0  0  0  0  0  0  0  0
   -1.0333   -1.3125    0.0000 C   0  0  0  0  0  0  0  0  0  0  0  0
   -1.6833   -1.6875    0.0000 C   0  0  0  0  0  0  0  0  0  0  0  0
   -2.3333   -1.3125    0.0000 C   0  0  0  0  0  0  0  0  0  0  0  0
  2  1  1  0  0  0  0
  3  4  1  0  0  0  0
  4 14  1  0  0  0  0
  5  1  1  0  0  0  0
  6 12  1  0  0  0  0
  7  5  1  0  0  0  0
  8  1  2  0  0  0  0
  9  2  1  0  0  0  0
 10  8  1  0  0  0  0
 11  3  1  0  0  0  0
 12 20  1  0  0  0  0
 13 15  1  0  0  0  0
 14 16  1  0  0  0  0
 15  6  1  0  0  0  0
 16  6  1  0  0  0  0
 17  3  2  0  0  0  0
 18  2  2  0  0  0  0
 19 25  1  0  0  0  0
 20 26  2  0  0  0  0
 21 11  2  0  0  0  0
 22 11  1  0  0  0  0
 23  9  1  0  0  0  0
 24  7  1  0  0  0  0
 25 23  2  0  0  0  0
 26 23  1  0  0  0  0
 27 21  1  0  0  0  0
 28 22  2  0  0  0  0
 29 28  1  0  0  0  0
 30 29  1  0  0  0  0
 10  7  2  0  0  0  0
 19 12  2  0  0  0  0
 13  4  1  0  0  0  0
 27 29  2  0  0  0  0
M  END
>  <ID> (7695007)
7695007

>  <Supplier> (7695007)
ChemBridge

>  <clogP> (7695007)
3.194000000000000e+000

>  <RB> (7695007)
4

>  <tPSA> (7695007)
6.579000000000002e+001

>  <Hacc> (7695007)
3

>  <Hdon> (7695007)
1

>  <LogSw> (7695007)
-5.783000000000000e+000

>  <Group> (7695007)
2

>  <Core> (7695007)
158

$$$$
5456737
  -ISIS-  03310818222D

 27 29  0  0  0  0  0  0  0  0999 V2000
   -3.4333    2.1833    0.0000 C   0  0  3  0  0  0  0  0  0  0  0  0
   -4.0958    1.8000    0.0000 C   0  0  0  0  0  0  0  0  0  0  0  0
   -3.4333    2.9208    0.0000 C   0  0  0  0  0  0  0  0  0  0  0  0
    0.7667    2.2083    0.0000 C   0  0  0  0  0  0  0  0  0  0  0  0
   -1.2708    1.8125    0.0000 N   0  0  0  0  0  0  0  0  0  0  0  0
    2.1292    2.9958    0.0000 C   0  0  0  0  0  0  0  0  0  0  0  0
    0.0875    1.8125    0.0000 C   0  0  0  0  0  0  0  0  0  0  0  0
    0.7667    2.9958    0.0000 C   0  0  0  0  0  0  0  0  0  0  0  0
    1.4500    1.8000    0.0000 C   0  0  0  0  0  0  0  0  0  0  0  0
    1.4500    3.3833    0.0000 C   0  0  0  0  0  0  0  0  0  0  0  0
    2.1292    2.2083    0.0000 C   0  0  0  0  0  0  0  0  0  0  0  0
   -1.9500    2.2083    0.0000 C   0  0  0  0  0  0  0  0  0  0  0  0
    2.8042    3.3958    0.0000 O   0  0  0  0  0  0  0  0  0  0  0  0
   -0.5958    2.2125    0.0000 C   0  0  3  0  0  0  0  0  0  0  0  0
   -2.6333    1.8125    0.0000 C   0  0  0  0  0  0  0  0  0  0  0  0
   -4.7333    2.1833    0.0000 C   0  0  0  0  0  0  0  0  0  0  0  0
   -2.7958    3.2833    0.0000 C   0  0  0  0  0  0  0  0  0  0  0  0
   -4.0708    3.2833    0.0000 C   0  0  0  0  0  0  0  0  0  0  0  0
   -4.0958    1.0833    0.0000 C   0  0  0  0  0  0  0  0  0  0  0  0
    3.4792    3.0208    0.0000 C   0  0  0  0  0  0  0  0  0  0  0  0
   -0.5958    2.9958    0.0000 C   0  0  0  0  0  0  0  0  0  0  0  0
   -5.3708    1.8000    0.0000 C   0  0  0  0  0  0  0  0  0  0  0  0
   -4.7333    0.7000    0.0000 C   0  0  0  0  0  0  0  0  0  0  0  0
   -2.7958    4.0167    0.0000 C   0  0  0  0  0  0  0  0  0  0  0  0
   -4.0708    4.0167    0.0000 C   0  0  0  0  0  0  0  0  0  0  0  0
   -3.4333    4.3792    0.0000 C   0  0  0  0  0  0  0  0  0  0  0  0
   -5.3708    1.0833    0.0000 C   0  0  0  0  0  0  0  0  0  0  0  0
  2  1  1  0  0  0  0
  3  1  1  0  0  0  0
  4  7  1  0  0  0  0
  5 12  1  0  0  0  0
  6 11  1  0  0  0  0
  7 14  1  0  0  0  0
  8  4  2  0  0  0  0
  9  4  1  0  0  0  0
 10  8  1  0  0  0  0
 11  9  2  0  0  0  0
 12 15  1  0  0  0  0
 13  6  1  0  0  0  0
 14  5  1  0  0  0  0
 15  1  1  0  0  0  0
 16  2  1  0  0  0  0
 17  3  2  0  0  0  0
 18  3  1  0  0  0  0
 19  2  2  0  0  0  0
 20 13  1  0  0  0  0
 21 14  1  0  0  0  0
 22 16  2  0  0  0  0
 23 19  1  0  0  0  0
 24 17  1  0  0  0  0
 25 18  2  0  0  0  0
 26 25  1  0  0  0  0
 27 23  2  0  0  0  0
 24 26  2  0  0  0  0
 27 22  1  0  0  0  0
  6 10  2  0  0  0  0
M  END
>  <ID> (5456737)
5456737

>  <Supplier> (5456737)
ChemBridge

>  <clogP> (5456737)
5.720000000000000e+000

>  <RB> (5456737)
8

>  <tPSA> (5456737)
2.126000000000000e+001

>  <Hacc> (5456737)
2

>  <Hdon> (5456737)
1

>  <LogSw> (5456737)
-5.698000000000000e+000

>  <Group> (5456737)
2

$$$$
9004023
  -ISIS-  03310818282D

 17 18  0  0  0  0  0  0  0  0999 V2000
    2.1625    2.2750    0.0000 N   0  0  3  0  0  0  0  0  0  0  0  0
    2.9125    2.2750    0.0000 N   0  0  0  0  0  0  0  0  0  0  0  0
    3.2875    1.6250    0.0000 C   0  0  0  0  0  0  0  0  0  0  0  0
    1.7167    2.8833    0.0000 C   0  0  0  0  0  0  0  0  0  0  0  0
    1.7167    1.6708    0.0000 C   0  0  0  0  0  0  0  0  0  0  0  0
    1.0042    2.6500    0.0000 C   0  0  0  0  0  0  0  0  0  0  0  0
    1.0042    1.9000    0.0000 C   0  0  0  0  0  0  0  0  0  0  0  0
    4.0375    1.6250    0.0000 C   0  0  0  0  0  0  0  0  0  0  0  0
    2.9125    0.9750    0.0000 O   0  0  0  0  0  0  0  0  0  0  0  0
    4.4125    0.9750    0.0000 C   0  0  0  0  0  0  0  0  0  0  0  0
    4.4125    2.2750    0.0000 C   0  0  0  0  0  0  0  0  0  0  0  0
    5.5375    1.6250    0.0000 C   0  0  0  0  0  0  0  0  0  0  0  0
    5.1625    2.2750    0.0000 C   0  0  0  0  0  0  0  0  0  0  0  0
    5.1625    0.9750    0.0000 C   0  0  0  0  0  0  0  0  0  0  0  0
    6.2875    1.6250    0.0000 Cl  0  0  0  0  0  0  0  0  0  0  0  0
    1.9542    0.9583    0.0000 C   0  0  0  0  0  0  0  0  0  0  0  0
    1.9542    3.5958    0.0000 C   0  0  0  0  0  0  0  0  0  0  0  0
  2  1  1  0  0  0  0
  3  2  1  0  0  0  0
  4  1  1  0  0  0  0
  5  1  1  0  0  0  0
  6  4  2  0  0  0  0
  7  5  2  0  0  0  0
  8  3  1  0  0  0  0
  9  3  2  0  0  0  0
 10  8  2  0  0  0  0
 11  8  1  0  0  0  0
 12 13  1  0  0  0  0
 13 11  2  0  0  0  0
 14 10  1  0  0  0  0
 15 12  1  0  0  0  0
 16  5  1  0  0  0  0
 17  4  1  0  0  0  0
  6  7  1  0  0  0  0
 14 12  2  0  0  0  0
M  END
>  <ID> (9004023)
9004023

>  <Supplier> (9004023)
ChemBridge

>  <clogP> (9004023)
4.010000000000000e+000

>  <RB> (9004023)
2

>  <tPSA> (9004023)
3.403000000000000e+001

>  <Hacc> (9004023)
1

>  <Hdon> (9004023)
1

>  <LogSw> (9004023)
-4.439000000000002e+000

>  <Group> (9004023)
2

$$$$
7944168
  -ISIS-  03310818272D

 28 31  0  0  0  0  0  0  0  0999 V2000
    3.2375    3.1958    0.0000 C   0  0  0  0  0  0  0  0  0  0  0  0
    0.9875    1.8958    0.0000 C   0  0  3  0  0  0  0  0  0  0  0  0
    3.9875    3.1958    0.0000 N   0  0  3  0  0  0  0  0  0  0  0  0
    2.8625    2.5458    0.0000 C   0  0  0  0  0  0  0  0  0  0  0  0
    1.7375    1.8958    0.0000 C   0  0  0  0  0  0  0  0  0  0  0  0
    5.4875    3.1958    0.0000 N   0  0  3  0  0  0  0  0  0  0  0  0
    6.6125    1.2458    0.0000 C   0  0  0  0  0  0  0  0  0  0  0  0
    2.1125    2.5458    0.0000 C   0  0  0  0  0  0  0  0  0  0  0  0
    7.3625    1.2458    0.0000 C   0  0  0  0  0  0  0  0  0  0  0  0
    6.3792    0.5333    0.0000 O   0  0  0  0  0  0  0  0  0  0  0  0
    7.5917    0.5333    0.0000 O   0  0  0  0  0  0  0  0  0  0  0  0
    6.9875    0.0875    0.0000 C   0  0  0  0  0  0  0  0  0  0  0  0
    2.8625    3.8458    0.0000 O   0  0  0  0  0  0  0  0  0  0  0  0
    6.2375    1.8958    0.0000 C   0  0  0  0  0  0  0  0  0  0  0  0
    4.3625    3.8458    0.0000 C   0  0  0  0  0  0  0  0  0  0  0  0
    4.3625    2.5458    0.0000 C   0  0  0  0  0  0  0  0  0  0  0  0
    6.6125    2.5458    0.0000 C   0  0  0  0  0  0  0  0  0  0  0  0
    6.2375    3.1958    0.0000 C   0  0  0  0  0  0  0  0  0  0  0  0
    0.7917    1.1708    0.0000 F   0  0  0  0  0  0  0  0  0  0  0  0
    1.0542    2.6458    0.0000 F   0  0  0  0  0  0  0  0  0  0  0  0
    0.2500    2.0208    0.0000 F   0  0  0  0  0  0  0  0  0  0  0  0
    7.7375    1.8958    0.0000 C   0  0  0  0  0  0  0  0  0  0  0  0
    5.1125    3.8458    0.0000 C   0  0  0  0  0  0  0  0  0  0  0  0
    5.1125    2.5458    0.0000 C   0  0  0  0  0  0  0  0  0  0  0  0
    7.3625    2.5458    0.0000 C   0  0  0  0  0  0  0  0  0  0  0  0
    3.2375    1.8958    0.0000 C   0  0  0  0  0  0  0  0  0  0  0  0
    2.1125    1.2458    0.0000 C   0  0  0  0  0  0  0  0  0  0  0  0
    2.8625    1.2458    0.0000 C   0  0  0  0  0  0  0  0  0  0  0  0
  2  5  1  0  0  0  0
  3  1  1  0  0  0  0
  4  1  1  0  0  0  0
  5  8  1  0  0  0  0
  6 24  1  0  0  0  0
  7 14  1  0  0  0  0
  8  4  2  0  0  0  0
  9 22  1  0  0  0  0
 10  7  1  0  0  0  0
 11  9  1  0  0  0  0
 12 10  1  0  0  0  0
 13  1  2  0  0  0  0
 14 17  2  0  0  0  0
 15  3  1  0  0  0  0
 16  3  1  0  0  0  0
 17 18  1  0  0  0  0
 18  6  1  0  0  0  0
 19  2  1  0  0  0  0
 20  2  1  0  0  0  0
 21  2  1  0  0  0  0
 22 25  2  0  0  0  0
 23 15  1  0  0  0  0
 24 16  1  0  0  0  0
 25 17  1  0  0  0  0
 26  4  1  0  0  0  0
 27 28  1  0  0  0  0
 28 26  2  0  0  0  0
  6 23  1  0  0  0  0
 27  5  2  0  0  0  0
  7  9  2  0  0  0  0
 12 11  1  0  0  0  0
M  END
>  <ID> (7944168)
7944168

>  <Supplier> (7944168)
ChemBridge

>  <clogP> (7944168)
3.635000000000000e+000

>  <RB> (7944168)
3

>  <tPSA> (7944168)
4.201000000000001e+001

>  <Hacc> (7944168)
4

>  <Hdon> (7944168)
0

>  <LogSw> (7944168)
-5.164999999999997e+000

>  <Group> (7944168)
2

>  <Core> (7944168)
165

$$$$
6247832
  -ISIS-  03310818232D

 33 35  0  0  0  0  0  0  0  0999 V2000
    4.2667   -3.6417    0.0000 C   0  0  0  0  0  0  0  0  0  0  0  0
    3.4417   -3.6542    0.0000 C   0  0  0  0  0  0  0  0  0  0  0  0
    3.8750   -4.9125    0.0000 C   0  0  0  0  0  0  0  0  0  0  0  0
    4.5292   -4.4167    0.0000 S   0  0  0  0  0  0  0  0  0  0  0  0
    3.2042   -4.4417    0.0000 C   0  0  0  0  0  0  0  0  0  0  0  0
    3.8875   -5.7375    0.0000 C   0  0  0  0  0  0  0  0  0  0  0  0
    2.9500   -2.9917    0.0000 C   0  0  0  0  0  0  0  0  0  0  0  0
    6.0500   -6.9542    0.0000 C   0  0  0  0  0  0  0  0  0  0  0  0
    4.7375   -2.9667    0.0000 N   0  0  0  0  0  0  0  0  0  0  0  0
    5.3417   -7.3667    0.0000 C   0  0  0  0  0  0  0  0  0  0  0  0
    6.0417   -6.1292    0.0000 C   0  0  0  0  0  0  0  0  0  0  0  0
    4.6042   -6.1417    0.0000 C   0  0  0  0  0  0  0  0  0  0  0  0
    5.3250   -5.7250    0.0000 C   0  0  0  0  0  0  0  0  0  0  0  0
    4.6167   -6.9667    0.0000 C   0  0  0  0  0  0  0  0  0  0  0  0
    2.4167   -4.7042    0.0000 O   0  0  0  0  0  0  0  0  0  0  0  0
    3.2667   -2.2375    0.0000 O   0  0  0  0  0  0  0  0  0  0  0  0
    5.5625   -3.0417    0.0000 C   0  0  0  0  0  0  0  0  0  0  0  0
    6.7667   -7.3542    0.0000 O   0  0  0  0  0  0  0  0  0  0  0  0
    2.1292   -3.0917    0.0000 O   0  0  0  0  0  0  0  0  0  0  0  0
    5.3417   -8.2000    0.0000 O   0  0  0  0  0  0  0  0  0  0  0  0
    6.7500   -5.7125    0.0000 O   0  0  0  0  0  0  0  0  0  0  0  0
    7.2000   -3.1917    0.0000 C   0  0  0  0  0  0  0  0  0  0  0  0
    5.9042   -3.7917    0.0000 C   0  0  0  0  0  0  0  0  0  0  0  0
    6.0292   -2.3667    0.0000 C   0  0  0  0  0  0  0  0  0  0  0  0
    6.7250   -3.8667    0.0000 C   0  0  0  0  0  0  0  0  0  0  0  0
    6.8542   -2.4417    0.0000 C   0  0  0  0  0  0  0  0  0  0  0  0
    8.0167   -3.2667    0.0000 O   0  0  0  0  0  0  0  0  0  0  0  0
    1.6292   -2.4375    0.0000 C   0  0  0  0  0  0  0  0  0  0  0  0
    7.4792   -6.9417    0.0000 C   0  0  0  0  0  0  0  0  0  0  0  0
    6.0667   -8.6042    0.0000 C   0  0  0  0  0  0  0  0  0  0  0  0
    6.7417   -4.8792    0.0000 C   0  0  0  0  0  0  0  0  0  0  0  0
    8.4917   -2.5917    0.0000 C   0  0  0  0  0  0  0  0  0  0  0  0
    0.8167   -2.5375    0.0000 C   0  0  0  0  0  0  0  0  0  0  0  0
  2  1  2  0  0  0  0
  3  4  1  0  0  0  0
  4  1  1  0  0  0  0
  5  2  1  0  0  0  0
  6  3  2  0  0  0  0
  7  2  1  0  0  0  0
  8 10  1  0  0  0  0
  9  1  1  0  0  0  0
 10 14  2  0  0  0  0
 11 13  1  0  0  0  0
 12  6  1  0  0  0  0
 13 12  2  0  0  0  0
 14 12  1  0  0  0  0
 15  5  2  0  0  0  0
 16  7  2  0  0  0  0
 17  9  1  0  0  0  0
 18  8  1  0  0  0  0
 19  7  1  0  0  0  0
 20 10  1  0  0  0  0
 21 11  1  0  0  0  0
 22 26  1  0  0  0  0
 23 17  2  0  0  0  0
 24 17  1  0  0  0  0
 25 23  1  0  0  0  0
 26 24  2  0  0  0  0
 27 22  1  0  0  0  0
 28 19  1  0  0  0  0
 29 18  1  0  0  0  0
 30 20  1  0  0  0  0
 31 21  1  0  0  0  0
 32 27  1  0  0  0  0
 33 28  1  0  0  0  0
  5  3  1  0  0  0  0
 25 22  2  0  0  0  0
 11  8  2  0  0  0  0
M  END
>  <ID> (6247832)
6247832

>  <Supplier> (6247832)
ChemBridge

>  <clogP> (6247832)
3.140000000000000e+000

>  <RB> (6247832)
4

>  <tPSA> (6247832)
9.231999999999999e+001

>  <Hacc> (6247832)
7

>  <Hdon> (6247832)
1

>  <LogSw> (6247832)
-5.318000000000000e+000

>  <Group> (6247832)
3

>  <Core> (6247832)
286

$$$$
9076583
  -ISIS-  03310818292D

 20 20  0  0  0  0  0  0  0  0999 V2000
    4.6625   -3.2375    0.0000 C   0  0  0  0  0  0  0  0  0  0  0  0
    5.1417   -3.9042    0.0000 O   0  0  0  0  0  0  0  0  0  0  0  0
    5.1417   -2.5667    0.0000 C   0  0  0  0  0  0  0  0  0  0  0  0
    5.9375   -3.6500    0.0000 C   0  0  0  0  0  0  0  0  0  0  0  0
    5.9375   -2.8167    0.0000 C   0  0  0  0  0  0  0  0  0  0  0  0
    3.8292   -3.2375    0.0000 C   0  0  0  0  0  0  0  0  0  0  0  0
    7.3625   -3.8042    0.0000 N   0  0  0  0  0  0  0  0  0  0  0  0
    8.0292   -4.2875    0.0000 C   0  0  3  0  0  0  0  0  0  0  0  0
    3.4167   -2.5167    0.0000 C   0  0  0  0  0  0  0  0  0  0  0  0
    3.4167   -3.9542    0.0000 C   0  0  0  0  0  0  0  0  0  0  0  0
    6.6000   -4.1292    0.0000 C   0  0  0  0  0  0  0  0  0  0  0  0
    2.1667   -3.2375    0.0000 C   0  0  0  0  0  0  0  0  0  0  0  0
    2.5875   -3.9542    0.0000 C   0  0  0  0  0  0  0  0  0  0  0  0
    2.5875   -2.5167    0.0000 C   0  0  0  0  0  0  0  0  0  0  0  0
    1.3417   -3.2375    0.0000 Cl  0  0  0  0  0  0  0  0  0  0  0  0
    2.7417   -4.7667    0.0000 Cl  0  0  0  0  0  0  0  0  0  0  0  0
    9.4500   -4.0667    0.0000 O   0  0  0  0  0  0  0  0  0  0  0  0
    8.6750   -3.7667    0.0000 C   0  0  0  0  0  0  0  0  0  0  0  0
    7.4875   -4.9167    0.0000 C   0  0  0  0  0  0  0  0  0  0  0  0
    8.6042   -4.8792    0.0000 C   0  0  0  0  0  0  0  0  0  0  0  0
  2  1  1  0  0  0  0
  3  1  2  0  0  0  0
  4  2  1  0  0  0  0
  5  3  1  0  0  0  0
  6  1  1  0  0  0  0
  7 11  1  0  0  0  0
  8  7  1  0  0  0  0
  9  6  1  0  0  0  0
 10  6  2  0  0  0  0
 11  4  1  0  0  0  0
 12 13  2  0  0  0  0
 13 10  1  0  0  0  0
 14  9  2  0  0  0  0
 15 12  1  0  0  0  0
 17 18  1  0  0  0  0
 18  8  1  0  0  0  0
 19  8  1  0  0  0  0
 20  8  1  0  0  0  0
  5  4  2  0  0  0  0
 14 12  1  0  0  0  0
M  END
>  <ID> (9076583)
9076583

>  <Supplier> (9076583)
ChemBridge

>  <clogP> (9076583)
1.440000000000000e+000

>  <RB> (9076583)
5

>  <tPSA> (9076583)
4.540000000000000e+001

>  <Hacc> (9076583)
3

>  <Hdon> (9076583)
2

>  <LogSw> (9076583)
-2.975000000000000e+000

>  <Group> (9076583)
2

$$$$
5737652
  -ISIS-  03310818222D

 25 27  0  0  0  0  0  0  0  0999 V2000
    1.0500    0.0083    0.0000 N   0  0  3  0  0  0  0  0  0  0  0  0
    1.0500   -0.7417    0.0000 C   0  0  0  0  0  0  0  0  0  0  0  0
    2.3417    0.0083    0.0000 C   0  0  0  0  0  0  0  0  0  0  0  0
    2.3417   -0.7417    0.0000 C   0  0  0  0  0  0  0  0  0  0  0  0
    1.6917   -1.1167    0.0000 S   0  0  0  0  0  0  0  0  0  0  0  0
    4.2917   -3.3667    0.0000 N   0  3  0  0  0  0  0  0  0  0  0  0
    3.6500   -2.9917    0.0000 C   0  0  0  0  0  0  0  0  0  0  0  0
    0.5167    0.5375    0.0000 C   0  0  0  0  0  0  0  0  0  0  0  0
    2.9917   -1.1167    0.0000 C   0  0  0  0  0  0  0  0  0  0  0  0
    0.4000   -1.1167    0.0000 S   0  0  0  0  0  0  0  0  0  0  0  0
   -0.2083    0.3458    0.0000 C   0  0  0  0  0  0  0  0  0  0  0  0
    2.9917   -3.3667    0.0000 C   0  0  0  0  0  0  0  0  0  0  0  0
    3.6417   -2.2417    0.0000 C   0  0  0  0  0  0  0  0  0  0  0  0
    4.2917   -4.1167    0.0000 O   0  5  0  0  0  0  0  0  0  0  0  0
    4.9417   -2.9917    0.0000 O   0  0  0  0  0  0  0  0  0  0  0  0
    2.8792    0.5375    0.0000 O   0  0  0  0  0  0  0  0  0  0  0  0
    2.9917   -1.8667    0.0000 C   0  0  0  0  0  0  0  0  0  0  0  0
    2.3417   -2.9917    0.0000 C   0  0  0  0  0  0  0  0  0  0  0  0
   -0.7375    0.8708    0.0000 C   0  0  0  0  0  0  0  0  0  0  0  0
    2.3417   -2.2417    0.0000 C   0  0  0  0  0  0  0  0  0  0  0  0
    0.7125    1.2625    0.0000 C   0  0  0  0  0  0  0  0  0  0  0  0
    2.9917   -4.1167    0.0000 O   0  0  0  0  0  0  0  0  0  0  0  0
   -1.4625    0.6833    0.0000 Cl  0  0  0  0  0  0  0  0  0  0  0  0
    0.1792    1.7958    0.0000 C   0  0  0  0  0  0  0  0  0  0  0  0
   -0.5458    1.5958    0.0000 C   0  0  0  0  0  0  0  0  0  0  0  0
  2  1  1  0  0  0  0
  3  1  1  0  0  0  0
  4  3  1  0  0  0  0
  5  2  1  0  0  0  0
  6  7  1  0  0  0  0
  7 13  2  0  0  0  0
  8  1  1  0  0  0  0
  9  4  2  0  0  0  0
 10  2  2  0  0  0  0
 11  8  2  0  0  0  0
 12 18  2  0  0  0  0
 13 17  1  0  0  0  0
 14  6  1  0  0  0  0
 15  6  2  0  0  0  0
 16  3  2  0  0  0  0
 17  9  1  0  0  0  0
 18 20  1  0  0  0  0
 19 11  1  0  0  0  0
 20 17  2  0  0  0  0
 21  8  1  0  0  0  0
 22 12  1  0  0  0  0
 23 19  1  0  0  0  0
 24 21  2  0  0  0  0
 25 24  1  0  0  0  0
  4  5  1  0  0  0  0
 19 25  2  0  0  0  0
  7 12  1  0  0  0  0
M  CHG  2   6   1  14  -1
M  END
>  <ID> (5737652)
5737652

>  <Supplier> (5737652)
ChemBridge

>  <clogP> (5737652)
4.440000000000000e+000

>  <RB> (5737652)
2

>  <tPSA> (5737652)
8.368000000000002e+001

>  <Hacc> (5737652)
4

>  <Hdon> (5737652)
1

>  <LogSw> (5737652)
-5.856000000000000e+000

>  <Group> (5737652)
1

>  <Core> (5737652)
001

$$$$
9076581
  -ISIS-  03310818292D

 25 27  0  0  0  0  0  0  0  0999 V2000
    1.7875    4.8417    0.0000 C   0  0  0  0  0  0  0  0  0  0  0  0
    1.3500    5.4542    0.0000 N   0  0  3  0  0  0  0  0  0  0  0  0
    1.3500    4.2417    0.0000 N   0  0  0  0  0  0  0  0  0  0  0  0
    0.6292    4.4667    0.0000 N   0  0  0  0  0  0  0  0  0  0  0  0
    0.6292    5.2167    0.0000 N   0  0  0  0  0  0  0  0  0  0  0  0
    2.5375    4.8417    0.0000 N   0  0  0  0  0  0  0  0  0  0  0  0
    4.7875    3.5500    0.0000 C   0  0  0  0  0  0  0  0  0  0  0  0
    5.1625    4.1917    0.0000 C   0  0  0  0  0  0  0  0  0  0  0  0
    5.9125    4.1917    0.0000 O   0  0  0  0  0  0  0  0  0  0  0  0
    4.0375    3.5500    0.0000 C   0  0  0  0  0  0  0  0  0  0  0  0
    4.7875    4.8417    0.0000 C   0  0  0  0  0  0  0  0  0  0  0  0
    3.6625    4.1917    0.0000 C   0  0  0  0  0  0  0  0  0  0  0  0
    2.9125    4.1917    0.0000 C   0  0  0  0  0  0  0  0  0  0  0  0
    1.5792    6.1667    0.0000 C   0  0  0  0  0  0  0  0  0  0  0  0
    6.2875    4.8417    0.0000 C   0  0  0  0  0  0  0  0  0  0  0  0
    4.0375    4.8417    0.0000 C   0  0  0  0  0  0  0  0  0  0  0  0
    5.1625    2.9000    0.0000 O   0  0  0  0  0  0  0  0  0  0  0  0
    7.0375    4.8417    0.0000 C   0  0  0  0  0  0  0  0  0  0  0  0
    4.7875    2.2583    0.0000 C   0  0  0  0  0  0  0  0  0  0  0  0
    7.4125    4.1917    0.0000 C   0  0  0  0  0  0  0  0  0  0  0  0
    7.4125    5.4917    0.0000 C   0  0  0  0  0  0  0  0  0  0  0  0
    5.1625    1.6083    0.0000 C   0  0  0  0  0  0  0  0  0  0  0  0
    8.1625    5.4917    0.0000 C   0  0  0  0  0  0  0  0  0  0  0  0
    8.1625    4.1917    0.0000 C   0  0  0  0  0  0  0  0  0  0  0  0
    8.5375    4.8417    0.0000 C   0  0  0  0  0  0  0  0  0  0  0  0
  2  1  1  0  0  0  0
  3  1  2  0  0  0  0
  4  3  1  0  0  0  0
  5  2  1  0  0  0  0
  6  1  1  0  0  0  0
  7 10  2  0  0  0  0
  8 11  2  0  0  0  0
  9  8  1  0  0  0  0
 10 12  1  0  0  0  0
 11 16  1  0  0  0  0
 12 13  1  0  0  0  0
 13  6  1  0  0  0  0
 14  2  1  0  0  0  0
 15  9  1  0  0  0  0
 16 12  2  0  0  0  0
 17  7  1  0  0  0  0
 18 15  1  0  0  0  0
 19 17  1  0  0  0  0
 20 18  1  0  0  0  0
 21 18  2  0  0  0  0
 22 19  1  0  0  0  0
 23 21  1  0  0  0  0
 24 20  2  0  0  0  0
 25 23  2  0  0  0  0
  5  4  2  0  0  0  0
  7  8  1  0  0  0  0
 24 25  1  0  0  0  0
M  END
>  <ID> (9076581)
9076581

>  <Supplier> (9076581)
ChemBridge

>  <clogP> (9076581)
3.559000000000000e+000

>  <RB> (9076581)
6

>  <tPSA> (9076581)
7.409000000000000e+001

>  <Hacc> (9076581)
5

>  <Hdon> (9076581)
1

>  <LogSw> (9076581)
-4.714000000000000e+000

>  <Group> (9076581)
2

$$$$
7981973
  -ISIS-  03310818282D

 20 21  0  0  0  0  0  0  0  0999 V2000
    7.8667    0.6333    0.0000 C   0  0  0  0  0  0  0  0  0  0  0  0
    8.2417    1.2833    0.0000 C   0  0  0  0  0  0  0  0  0  0  0  0
    7.1375    0.7958    0.0000 N   0  0  0  0  0  0  0  0  0  0  0  0
    7.0542    1.5375    0.0000 N   0  0  3  0  0  0  0  0  0  0  0  0
    8.1750   -0.0500    0.0000 N   0  3  0  0  0  0  0  0  0  0  0  0
    7.7417    1.8458    0.0000 C   0  0  0  0  0  0  0  0  0  0  0  0
    5.7542    1.5375    0.0000 C   0  0  0  0  0  0  0  0  0  0  0  0
    8.9917    1.3625    0.0000 C   0  0  0  0  0  0  0  0  0  0  0  0
    6.4042    1.9125    0.0000 C   0  0  0  0  0  0  0  0  0  0  0  0
    5.1042    1.9125    0.0000 C   0  0  0  0  0  0  0  0  0  0  0  0
    9.7375    1.4458    0.0000 N   0  0  0  0  0  0  0  0  0  0  0  0
    7.7292   -0.6542    0.0000 O   0  5  0  0  0  0  0  0  0  0  0  0
    8.9167   -0.1292    0.0000 O   0  0  0  0  0  0  0  0  0  0  0  0
    4.4542    1.5375    0.0000 C   0  0  0  0  0  0  0  0  0  0  0  0
    5.1042    2.6625    0.0000 Cl  0  0  0  0  0  0  0  0  0  0  0  0
    3.8042    1.9125    0.0000 Cl  0  0  0  0  0  0  0  0  0  0  0  0
    7.9000    2.5833    0.0000 C   0  0  0  0  0  0  0  0  0  0  0  0
    5.7542    0.7875    0.0000 C   0  0  0  0  0  0  0  0  0  0  0  0
    5.1042    0.4125    0.0000 C   0  0  0  0  0  0  0  0  0  0  0  0
    4.4542    0.7875    0.0000 C   0  0  0  0  0  0  0  0  0  0  0  0
  2  1  1  0  0  0  0
  3  1  2  0  0  0  0
  4  3  1  0  0  0  0
  5  1  1  0  0  0  0
  6  2  2  0  0  0  0
  7  9  1  0  0  0  0
  8  2  1  0  0  0  0
  9  4  1  0  0  0  0
 10  7  1  0  0  0  0
 11  8  3  0  0  0  0
 12  5  1  0  0  0  0
 13  5  2  0  0  0  0
 14 10  2  0  0  0  0
 15 10  1  0  0  0  0
 16 14  1  0  0  0  0
 17  6  1  0  0  0  0
 18  7  2  0  0  0  0
 19 18  1  0  0  0  0
 20 19  2  0  0  0  0
  4  6  1  0  0  0  0
 14 20  1  0  0  0  0
M  CHG  2   5   1  12  -1
M  END
>  <ID> (7981973)
7981973

>  <Supplier> (7981973)
ChemBridge

>  <clogP> (7981973)
3.176000000000000e+000

>  <RB> (7981973)
2

>  <tPSA> (7981973)
8.475000000000011e+001

>  <Hacc> (7981973)
4

>  <Hdon> (7981973)
0

>  <LogSw> (7981973)
-4.836000000000000e+000

>  <Group> (7981973)
1

$$$$
6728818
  -ISIS-  03310818242D

 22 23  0  0  0  0  0  0  0  0999 V2000
    5.3125   -3.0667    0.0000 C   0  0  0  0  0  0  0  0  0  0  0  0
    4.5417   -2.6167    0.0000 N   0  0  0  0  0  0  0  0  0  0  0  0
    1.6417   -2.6375    0.0000 C   0  0  0  0  0  0  0  0  0  0  0  0
    3.7625   -3.0625    0.0000 C   0  0  0  0  0  0  0  0  0  0  0  0
    6.0917   -2.6292    0.0000 C   0  0  0  0  0  0  0  0  0  0  0  0
    2.3500   -3.0500    0.0000 O   0  0  0  0  0  0  0  0  0  0  0  0
    0.9292   -3.0417    0.0000 C   0  0  0  0  0  0  0  0  0  0  0  0
    1.6500   -1.8167    0.0000 C   0  0  0  0  0  0  0  0  0  0  0  0
    3.7542   -3.9625    0.0000 O   0  0  0  0  0  0  0  0  0  0  0  0
    0.2292   -2.6250    0.0000 C   0  0  0  0  0  0  0  0  0  0  0  0
    3.0542   -2.6417    0.0000 C   0  0  0  0  0  0  0  0  0  0  0  0
    6.0917   -1.7292    0.0000 C   0  0  3  0  0  0  0  0  0  0  0  0
    0.9500   -1.4042    0.0000 C   0  0  0  0  0  0  0  0  0  0  0  0
    0.2375   -1.8042    0.0000 C   0  0  0  0  0  0  0  0  0  0  0  0
    5.3042   -3.9667    0.0000 C   0  0  0  0  0  0  0  0  0  0  0  0
    6.8625   -3.0792    0.0000 C   0  0  0  0  0  0  0  0  0  0  0  0
    0.9250   -3.8667    0.0000 C   0  0  0  0  0  0  0  0  0  0  0  0
    6.8750   -1.2875    0.0000 C   0  0  0  0  0  0  0  0  0  0  0  0
    5.3250   -1.2792    0.0000 C   0  0  0  0  0  0  0  0  0  0  0  0
    0.9542   -0.5792    0.0000 C   0  0  0  0  0  0  0  0  0  0  0  0
    6.0792   -4.4167    0.0000 C   0  0  0  0  0  0  0  0  0  0  0  0
    6.8542   -3.9750    0.0000 C   0  0  0  0  0  0  0  0  0  0  0  0
  2  1  1  0  0  0  0
  3  6  1  0  0  0  0
  4  2  1  0  0  0  0
  5  1  2  0  0  0  0
  6 11  1  0  0  0  0
  7  3  2  0  0  0  0
  8  3  1  0  0  0  0
  9  4  2  0  0  0  0
 10  7  1  0  0  0  0
 11  4  1  0  0  0  0
 12  5  1  0  0  0  0
 13  8  2  0  0  0  0
 14 13  1  0  0  0  0
 15  1  1  0  0  0  0
 16  5  1  0  0  0  0
 17  7  1  0  0  0  0
 18 12  1  0  0  0  0
 19 12  1  0  0  0  0
 20 13  1  0  0  0  0
 21 15  2  0  0  0  0
 22 21  1  0  0  0  0
 22 16  2  0  0  0  0
 10 14  2  0  0  0  0
M  END
>  <ID> (6728818)
6728818

>  <Supplier> (6728818)
ChemBridge

>  <clogP> (6728818)
4.200000000000000e+000

>  <RB> (6728818)
4

>  <tPSA> (6728818)
3.833000000000000e+001

>  <Hacc> (6728818)
2

>  <Hdon> (6728818)
1

>  <LogSw> (6728818)
-4.956000000000000e+000

>  <Group> (6728818)
2

>  <Core> (6728818)
315

$$$$
6784018
  -ISIS-  03310818242D

 28 30  0  0  0  0  0  0  0  0999 V2000
    2.8542   -1.5000    0.0000 S   0  0  3  0  0  0  0  0  0  0  0  0
    2.8500   -2.3292    0.0000 N   0  0  3  0  0  0  0  0  0  0  0  0
    3.5625   -2.7417    0.0000 C   0  0  0  0  0  0  0  0  0  0  0  0
    4.2792   -2.3292    0.0000 C   0  0  0  0  0  0  0  0  0  0  0  0
    3.6792   -1.5000    0.0000 O   0  0  0  0  0  0  0  0  0  0  0  0
    2.0250   -1.4917    0.0000 O   0  0  0  0  0  0  0  0  0  0  0  0
    2.8500   -0.6667    0.0000 C   0  0  0  0  0  0  0  0  0  0  0  0
    6.4292   -2.7625    0.0000 C   0  0  0  0  0  0  0  0  0  0  0  0
    2.1292   -2.7375    0.0000 C   0  0  0  0  0  0  0  0  0  0  0  0
    6.5167   -3.5792    0.0000 O   0  0  0  0  0  0  0  0  0  0  0  0
    5.0000   -2.7500    0.0000 N   0  0  0  0  0  0  0  0  0  0  0  0
    7.2042   -2.4250    0.0000 C   0  0  0  0  0  0  0  0  0  0  0  0
    7.3292   -3.7625    0.0000 C   0  0  0  0  0  0  0  0  0  0  0  0
    4.2875   -1.5042    0.0000 O   0  0  0  0  0  0  0  0  0  0  0  0
    7.7500   -3.0500    0.0000 C   0  0  0  0  0  0  0  0  0  0  0  0
    5.7250   -2.3417    0.0000 C   0  0  0  0  0  0  0  0  0  0  0  0
    1.4167   -2.3167    0.0000 C   0  0  0  0  0  0  0  0  0  0  0  0
   -0.0208   -1.4792    0.0000 C   0  0  0  0  0  0  0  0  0  0  0  0
   -0.7333   -1.0667    0.0000 Br  0  0  0  0  0  0  0  0  0  0  0  0
    1.4167   -1.4917    0.0000 C   0  0  0  0  0  0  0  0  0  0  0  0
    0.7000   -2.7292    0.0000 C   0  0  0  0  0  0  0  0  0  0  0  0
   -0.0208   -2.3167    0.0000 C   0  0  0  0  0  0  0  0  0  0  0  0
    0.7042   -1.0667    0.0000 C   0  0  0  0  0  0  0  0  0  0  0  0
    2.1292   -0.2542    0.0000 C   0  0  0  0  0  0  0  0  0  0  0  0
    3.5667   -0.2500    0.0000 C   0  0  0  0  0  0  0  0  0  0  0  0
    3.5625    0.5833    0.0000 C   0  0  0  0  0  0  0  0  0  0  0  0
    2.1250    0.5708    0.0000 C   0  0  0  0  0  0  0  0  0  0  0  0
    2.8417    0.9875    0.0000 C   0  0  0  0  0  0  0  0  0  0  0  0
  2  1  1  0  0  0  0
  3  2  1  0  0  0  0
  4  3  1  0  0  0  0
  5  1  2  0  0  0  0
  6  1  2  0  0  0  0
  7  1  1  0  0  0  0
  8 16  1  0  0  0  0
  9  2  1  0  0  0  0
 10  8  1  0  0  0  0
 11  4  1  0  0  0  0
 12  8  2  0  0  0  0
 13 10  1  0  0  0  0
 14  4  2  0  0  0  0
 15 12  1  0  0  0  0
 16 11  1  0  0  0  0
 17  9  1  0  0  0  0
 18 22  1  0  0  0  0
 19 18  1  0  0  0  0
 20 17  2  0  0  0  0
 21 17  1  0  0  0  0
 22 21  2  0  0  0  0
 23 20  1  0  0  0  0
 24  7  1  0  0  0  0
 25  7  2  0  0  0  0
 26 25  1  0  0  0  0
 27 24  2  0  0  0  0
 28 26  2  0  0  0  0
 28 27  1  0  0  0  0
 18 23  2  0  0  0  0
 13 15  2  0  0  0  0
M  END
>  <ID> (6784018)
6784018

>  <Supplier> (6784018)
ChemBridge

>  <clogP> (6784018)
4.190000000000000e+000

>  <RB> (6784018)
7

>  <tPSA> (6784018)
7.962000000000001e+001

>  <Hacc> (6784018)
5

>  <Hdon> (6784018)
1

>  <LogSw> (6784018)
-6.154999999999998e+000

>  <Group> (6784018)
2

>  <Core> (6784018)
084

$$$$
5131081
  -ISIS-  03310818212D

 15 17  0  0  0  0  0  0  0  0999 V2000
   -1.6125   -0.2375    0.0000 C   0  0  0  0  0  0  0  0  0  0  0  0
   -2.2500   -0.6000    0.0000 C   0  0  0  0  0  0  0  0  0  0  0  0
   -2.2500   -1.3167    0.0000 N   0  0  0  0  0  0  0  0  0  0  0  0
   -1.6125    0.4833    0.0000 C   0  0  0  0  0  0  0  0  0  0  0  0
   -3.4958   -0.6000    0.0000 N   0  0  0  0  0  0  0  0  0  0  0  0
   -2.8708   -0.2375    0.0000 C   0  0  0  0  0  0  0  0  0  0  0  0
   -0.9333   -0.4500    0.0000 N   0  0  0  0  0  0  0  0  0  0  0  0
   -0.5333    0.1208    0.0000 S   0  0  0  0  0  0  0  0  0  0  0  0
   -2.8708   -1.6792    0.0000 C   0  0  0  0  0  0  0  0  0  0  0  0
   -3.4958   -1.3167    0.0000 C   0  0  0  0  0  0  0  0  0  0  0  0
   -0.9333    0.6958    0.0000 N   0  0  0  0  0  0  0  0  0  0  0  0
   -2.2333    0.8458    0.0000 C   0  0  0  0  0  0  0  0  0  0  0  0
   -2.8500    0.4833    0.0000 C   0  0  0  0  0  0  0  0  0  0  0  0
   -2.8708   -2.4000    0.0000 O   0  0  0  0  0  0  0  0  0  0  0  0
   -4.1333   -1.6792    0.0000 O   0  0  0  0  0  0  0  0  0  0  0  0
  2  1  1  0  0  0  0
  3  2  1  0  0  0  0
  4  1  1  0  0  0  0
  5  6  1  0  0  0  0
  6  2  2  0  0  0  0
  7  1  2  0  0  0  0
  8  7  1  0  0  0  0
  9  3  2  0  0  0  0
 10  5  2  0  0  0  0
 11  4  2  0  0  0  0
 12  4  1  0  0  0  0
 13 12  2  0  0  0  0
 14  9  1  0  0  0  0
 15 10  1  0  0  0  0
  8 11  1  0  0  0  0
  6 13  1  0  0  0  0
 10  9  1  0  0  0  0
M  END
>  <ID> (5131081)
5131081

>  <Supplier> (5131081)
ChemBridge

>  <clogP> (5131081)
2.760000000000000e+000

>  <RB> (5131081)
0

>  <tPSA> (5131081)
9.202000000000000e+001

>  <Hacc> (5131081)
6

>  <Hdon> (5131081)
2

>  <LogSw> (5131081)
-4.274000000000000e+000

>  <Group> (5131081)
3

$$$$
5131080
  -ISIS-  03310818212D

 17 19  0  0  0  0  0  0  0  0999 V2000
    1.0667    0.4000    0.0000 C   0  0  0  0  0  0  0  0  0  0  0  0
    1.7875    0.8208    0.0000 N   0  0  0  0  0  0  0  0  0  0  0  0
    1.7875    1.6333    0.0000 N   0  0  0  0  0  0  0  0  0  0  0  0
    0.3500    0.8208    0.0000 N   0  0  0  0  0  0  0  0  0  0  0  0
    0.3500    1.6625    0.0000 N   0  0  0  0  0  0  0  0  0  0  0  0
    2.4667   -2.0542    0.0000 C   0  0  0  0  0  0  0  0  0  0  0  0
    3.7292   -2.4792    0.0000 S   0  0  0  0  0  0  0  0  0  0  0  0
    3.2500   -1.8167    0.0000 N   0  0  0  0  0  0  0  0  0  0  0  0
    2.4667   -2.9000    0.0000 C   0  0  0  0  0  0  0  0  0  0  0  0
    3.2500   -3.1375    0.0000 N   0  0  0  0  0  0  0  0  0  0  0  0
    1.7667   -1.6375    0.0000 C   0  0  0  0  0  0  0  0  0  0  0  0
    1.0500   -0.4042    0.0000 N   0  0  0  0  0  0  0  0  0  0  0  0
    0.4792    0.1458    0.0000 N   0  0  0  0  0  0  0  0  0  0  0  0
    1.0500   -2.0542    0.0000 C   0  0  0  0  0  0  0  0  0  0  0  0
    1.0500   -2.9000    0.0000 C   0  0  0  0  0  0  0  0  0  0  0  0
    1.7667   -3.2875    0.0000 C   0  0  0  0  0  0  0  0  0  0  0  0
    1.7667   -0.8292    0.0000 C   0  0  0  0  0  0  0  0  0  0  0  0
  2  1  2  0  0  0  0
  3  2  1  0  0  0  0
  4  1  1  0  0  0  0
  5  4  1  0  0  0  0
  6 11  1  0  0  0  0
  7  8  1  0  0  0  0
  8  6  2  0  0  0  0
  9  6  1  0  0  0  0
 10  9  2  0  0  0  0
 11 17  1  0  0  0  0
 12 13  1  0  0  0  0
 13  1  1  0  0  0  0
 14 11  2  0  0  0  0
 15 14  1  0  0  0  0
 16 15  2  0  0  0  0
 17 12  2  0  0  0  0
  5  3  2  0  0  0  0
 16  9  1  0  0  0  0
 10  7  1  0  0  0  0
M  END
>  <ID> (5131080)
5131080

>  <Supplier> (5131080)
ChemBridge

>  <clogP> (5131080)
-9.000000000000000e-002

>  <RB> (5131080)
3

>  <tPSA> (5131080)
1.046300000000000e+002

>  <Hacc> (5131080)
6

>  <Hdon> (5131080)
2

>  <LogSw> (5131080)
-2.230000000000000e+000

>  <Group> (5131080)
3

$$$$
5532752
  -ISIS-  03310818222D

 29 32  0  0  0  0  0  0  0  0999 V2000
   -0.5208   -0.1875    0.0000 N   0  0  3  0  0  0  0  0  0  0  0  0
    0.0000    0.1333    0.0000 C   0  0  0  0  0  0  0  0  0  0  0  0
    0.0000    0.7333    0.0000 C   0  0  0  0  0  0  0  0  0  0  0  0
   -1.0458    0.1333    0.0000 C   0  0  0  0  0  0  0  0  0  0  0  0
   -0.0208   -1.6875    0.0000 C   0  0  0  0  0  0  0  0  0  0  0  0
   -0.5208    1.0333    0.0000 C   0  0  0  0  0  0  0  0  0  0  0  0
   -0.5500   -1.9542    0.0000 N   0  3  0  0  0  0  0  0  0  0  0  0
   -1.0458    0.7333    0.0000 C   0  0  0  0  0  0  0  0  0  0  0  0
   -0.5208   -0.7875    0.0000 O   0  0  0  0  0  0  0  0  0  0  0  0
    1.5292   -2.0292    0.0000 N   0  3  0  0  0  0  0  0  0  0  0  0
   -0.0125   -1.0875    0.0000 C   0  0  0  0  0  0  0  0  0  0  0  0
    0.4875   -2.0167    0.0000 C   0  0  0  0  0  0  0  0  0  0  0  0
    1.0167   -1.7167    0.0000 C   0  0  0  0  0  0  0  0  0  0  0  0
    0.5375    1.0333    0.0000 C   0  0  0  0  0  0  0  0  0  0  0  0
    0.5542   -0.1875    0.0000 O   0  0  0  0  0  0  0  0  0  0  0  0
   -1.1000   -1.6792    0.0000 O   0  5  0  0  0  0  0  0  0  0  0  0
    1.5667   -2.6500    0.0000 O   0  5  0  0  0  0  0  0  0  0  0  0
   -1.5833   -0.1875    0.0000 O   0  0  0  0  0  0  0  0  0  0  0  0
   -0.6125   -2.5542    0.0000 O   0  0  0  0  0  0  0  0  0  0  0  0
    2.0792   -1.7792    0.0000 O   0  0  0  0  0  0  0  0  0  0  0  0
   -0.5208    1.6333    0.0000 C   0  0  0  0  0  0  0  0  0  0  0  0
    0.5167   -0.7875    0.0000 C   0  0  0  0  0  0  0  0  0  0  0  0
    1.0375   -1.1042    0.0000 C   0  0  0  0  0  0  0  0  0  0  0  0
    0.5375    1.6333    0.0000 C   0  0  0  0  0  0  0  0  0  0  0  0
    0.0000    1.9333    0.0000 C   0  0  0  0  0  0  0  0  0  0  0  0
   -1.5625    1.0333    0.0000 C   0  0  0  0  0  0  0  0  0  0  0  0
    1.0792    0.7125    0.0000 I   0  0  0  0  0  0  0  0  0  0  0  0
   -1.5625    1.6333    0.0000 C   0  0  0  0  0  0  0  0  0  0  0  0
   -1.0458    1.9333    0.0000 C   0  0  0  0  0  0  0  0  0  0  0  0
  2  1  1  0  0  0  0
  3  2  1  0  0  0  0
  4  1  1  0  0  0  0
  5 11  2  0  0  0  0
  6  8  1  0  0  0  0
  7  5  1  0  0  0  0
  8  4  1  0  0  0  0
  9  1  1  0  0  0  0
 10 13  1  0  0  0  0
 11  9  1  0  0  0  0
 12  5  1  0  0  0  0
 13 23  1  0  0  0  0
 14  3  2  0  0  0  0
 15  2  2  0  0  0  0
 16  7  1  0  0  0  0
 17 10  1  0  0  0  0
 18  4  2  0  0  0  0
 19  7  2  0  0  0  0
 20 10  2  0  0  0  0
 21  6  2  0  0  0  0
 22 11  1  0  0  0  0
 23 22  2  0  0  0  0
 24 14  1  0  0  0  0
 25 21  1  0  0  0  0
 26  8  2  0  0  0  0
 27 14  1  0  0  0  0
 28 26  1  0  0  0  0
 29 28  2  0  0  0  0
  3  6  1  0  0  0  0
 13 12  2  0  0  0  0
 21 29  1  0  0  0  0
 24 25  2  0  0  0  0
M  CHG  4   7   1  10   1  16  -1  17  -1
M  END
>  <ID> (5532752)
5532752

>  <Supplier> (5532752)
ChemBridge

>  <clogP> (5532752)
5.380000000000000e+000

>  <RB> (5532752)
2

>  <tPSA> (5532752)
1.328900000000000e+002

>  <Hacc> (5532752)
7

>  <Hdon> (5532752)
0

>  <LogSw> (5532752)
-8.976000000000004e+000

>  <Group> (5532752)
1

>  <Core> (5532752)
280

$$$$
5532755
  -ISIS-  03310818222D

 23 24  0  0  0  0  0  0  0  0999 V2000
   -0.6333    0.8208    0.0000 C   0  0  0  0  0  0  0  0  0  0  0  0
   -3.4333   -0.7875    0.0000 C   0  0  0  0  0  0  0  0  0  0  0  0
   -2.4958   -0.7875    0.0000 C   0  0  0  0  0  0  0  0  0  0  0  0
   -1.0958    0.0208    0.0000 N   0  0  0  0  0  0  0  0  0  0  0  0
    0.7667    0.0208    0.0000 N   0  0  0  0  0  0  0  0  0  0  0  0
   -2.0208    0.0208    0.0000 C   0  0  0  0  0  0  0  0  0  0  0  0
   -3.9000    0.0208    0.0000 C   0  0  0  0  0  0  0  0  0  0  0  0
    3.0875    2.4208    0.0000 C   0  0  0  0  0  0  0  0  0  0  0  0
    3.5542    3.2208    0.0000 N   0  0  3  0  0  0  0  0  0  0  0  0
   -1.1000    1.6208    0.0000 O   0  0  0  0  0  0  0  0  0  0  0  0
    0.3000    0.8208    0.0000 O   0  0  0  0  0  0  0  0  0  0  0  0
   -3.4333    0.8333    0.0000 C   0  0  0  0  0  0  0  0  0  0  0  0
    3.5500    1.6208    0.0000 C   0  0  0  0  0  0  0  0  0  0  0  0
    2.1542    2.4208    0.0000 C   0  0  0  0  0  0  0  0  0  0  0  0
    1.6875    0.0208    0.0000 C   0  0  0  0  0  0  0  0  0  0  0  0
   -3.8958   -1.5875    0.0000 Cl  0  0  0  0  0  0  0  0  0  0  0  0
    2.1500    0.8125    0.0000 C   0  0  0  0  0  0  0  0  0  0  0  0
   -2.4958    0.8333    0.0000 C   0  0  0  0  0  0  0  0  0  0  0  0
   -4.8208    0.0208    0.0000 Cl  0  0  0  0  0  0  0  0  0  0  0  0
    3.0792    0.8125    0.0000 C   0  0  0  0  0  0  0  0  0  0  0  0
    1.7000    1.6208    0.0000 C   0  0  0  0  0  0  0  0  0  0  0  0
    3.1000    4.0042    0.0000 C   0  0  0  0  0  0  0  0  0  0  0  0
    4.4875    3.2208    0.0000 C   0  0  0  0  0  0  0  0  0  0  0  0
  2  3  2  0  0  0  0
  3  6  1  0  0  0  0
  4  1  1  0  0  0  0
  5 11  1  0  0  0  0
  6  4  1  0  0  0  0
  7 12  2  0  0  0  0
  8 14  1  0  0  0  0
  9  8  1  0  0  0  0
 10  1  2  0  0  0  0
 11  1  1  0  0  0  0
 12 18  1  0  0  0  0
 13 20  1  0  0  0  0
 14 21  2  0  0  0  0
 15  5  2  0  0  0  0
 16  2  1  0  0  0  0
 17 15  1  0  0  0  0
 18  6  2  0  0  0  0
 19  7  1  0  0  0  0
 20 17  2  0  0  0  0
 21 17  1  0  0  0  0
 22  9  1  0  0  0  0
 23  9  1  0  0  0  0
  2  7  1  0  0  0  0
 13  8  2  0  0  0  0
M  END
>  <ID> (5532755)
5532755

>  <Supplier> (5532755)
ChemBridge

>  <clogP> (5532755)
5.570000000000000e+000

>  <RB> (5532755)
4

>  <tPSA> (5532755)
5.393000000000000e+001

>  <Hacc> (5532755)
3

>  <Hdon> (5532755)
1

>  <LogSw> (5532755)
-6.525000000000000e+000

>  <Group> (5532755)
1

$$$$
7118488
  -ISIS-  03310818252D

 30 31  0  0  0  0  0  0  0  0999 V2000
    6.6125   -0.7417    0.0000 C   0  0  0  0  0  0  0  0  0  0  0  0
    5.8667   -0.8042    0.0000 C   0  0  0  0  0  0  0  0  0  0  0  0
    4.9917    1.9083    0.0000 N   0  0  3  0  0  0  0  0  0  0  0  0
    6.2917    1.1583    0.0000 N   0  0  3  0  0  0  0  0  0  0  0  0
    7.0375   -1.3667    0.0000 O   0  0  0  0  0  0  0  0  0  0  0  0
    5.4417   -0.1792    0.0000 O   0  0  0  0  0  0  0  0  0  0  0  0
    4.3417    2.2833    0.0000 C   0  0  0  0  0  0  0  0  0  0  0  0
    6.9417    0.7833    0.0000 C   0  0  0  0  0  0  0  0  0  0  0  0
    3.6917    1.9083    0.0000 C   0  0  0  0  0  0  0  0  0  0  0  0
    5.6417    2.2833    0.0000 C   0  0  0  0  0  0  0  0  0  0  0  0
    4.9917    1.1583    0.0000 C   0  0  0  0  0  0  0  0  0  0  0  0
    5.6417    0.7833    0.0000 C   0  0  0  0  0  0  0  0  0  0  0  0
    6.2917    1.9083    0.0000 C   0  0  0  0  0  0  0  0  0  0  0  0
    3.0417    2.2833    0.0000 C   0  0  0  0  0  0  0  0  0  0  0  0
    5.5417   -1.4792    0.0000 O   0  0  0  0  0  0  0  0  0  0  0  0
    6.9375   -0.0667    0.0000 O   0  0  0  0  0  0  0  0  0  0  0  0
    7.5917    1.1583    0.0000 C   0  0  0  0  0  0  0  0  0  0  0  0
    2.3917    1.9083    0.0000 C   0  0  0  0  0  0  0  0  0  0  0  0
    8.8875    1.9083    0.0000 C   0  0  0  0  0  0  0  0  0  0  0  0
    1.7417    2.2833    0.0000 F   0  0  0  0  0  0  0  0  0  0  0  0
    7.5917    1.9083    0.0000 C   0  0  0  0  0  0  0  0  0  0  0  0
    8.2375    0.7833    0.0000 C   0  0  0  0  0  0  0  0  0  0  0  0
    8.8875    1.1583    0.0000 C   0  0  0  0  0  0  0  0  0  0  0  0
    8.2375    2.2833    0.0000 C   0  0  0  0  0  0  0  0  0  0  0  0
    9.5375    2.2833    0.0000 O   0  0  0  0  0  0  0  0  0  0  0  0
    3.0417    0.7833    0.0000 C   0  0  0  0  0  0  0  0  0  0  0  0
    3.6917    1.1583    0.0000 C   0  0  0  0  0  0  0  0  0  0  0  0
    2.3917    1.1583    0.0000 C   0  0  0  0  0  0  0  0  0  0  0  0
    9.5375    3.0333    0.0000 C   0  0  0  0  0  0  0  0  0  0  0  0
   10.1875    3.4083    0.0000 C   0  0  0  0  0  0  0  0  0  0  0  0
  2  1  1  0  0  0  0
  4 12  1  0  0  0  0
  5  1  2  0  0  0  0
  6  2  2  0  0  0  0
  7  3  1  0  0  0  0
  8  4  1  0  0  0  0
  9  7  1  0  0  0  0
 10  3  1  0  0  0  0
 11  3  1  0  0  0  0
 12 11  1  0  0  0  0
 13 10  1  0  0  0  0
 14  9  1  0  0  0  0
 15  2  1  0  0  0  0
 16  1  1  0  0  0  0
 17  8  1  0  0  0  0
 18 14  2  0  0  0  0
 19 23  1  0  0  0  0
 20 18  1  0  0  0  0
 21 17  2  0  0  0  0
 22 17  1  0  0  0  0
 23 22  2  0  0  0  0
 24 21  1  0  0  0  0
 25 19  1  0  0  0  0
 26 27  1  0  0  0  0
 27  9  2  0  0  0  0
 28 26  2  0  0  0  0
 29 25  1  0  0  0  0
 30 29  1  0  0  0  0
  4 13  1  0  0  0  0
 18 28  1  0  0  0  0
 19 24  2  0  0  0  0
M  END
>  <ID> (7118488)
7118488

>  <Supplier> (7118488)
ChemBridge

>  <clogP> (7118488)
1.140000000000000e+000

>  <RB> (7118488)
1

>  <tPSA> (7118488)
9.030999999999999e+001

>  <Hacc> (7118488)
7

>  <Hdon> (7118488)
2

>  <LogSw> (7118488)
-1.561000000000000e+000

>  <Group> (7118488)
2

>  <Core> (7118488)
164

$$$$
7118489
  -ISIS-  03310818252D

 25 27  0  0  0  0  0  0  0  0999 V2000
    2.6417    7.0875    0.0000 N   0  0  3  0  0  0  0  0  0  0  0  0
    4.3542    9.8917    0.0000 C   0  0  0  0  0  0  0  0  0  0  0  0
    4.3542    8.0042    0.0000 C   0  0  0  0  0  0  0  0  0  0  0  0
    1.1667    8.0042    0.0000 C   0  0  0  0  0  0  0  0  0  0  0  0
    1.1667    9.8917    0.0000 N   0  0  0  0  0  0  0  0  0  0  0  0
    2.6417   10.8167    0.0000 C   0  0  0  0  0  0  0  0  0  0  0  0
    5.3667   10.6042    0.0000 C   0  0  0  0  0  0  0  0  0  0  0  0
    6.7500   10.4792    0.0000 C   0  0  0  0  0  0  0  0  0  0  0  0
    7.5042   11.4417    0.0000 S   0  0  0  0  0  0  0  0  0  0  0  0
    2.6417    5.8292    0.0000 C   0  0  0  0  0  0  0  0  0  0  0  0
    8.6792   10.9417    0.0000 C   0  0  0  0  0  0  0  0  0  0  0  0
    7.3375    9.4792    0.0000 C   0  0  0  0  0  0  0  0  0  0  0  0
    8.5542    9.7292    0.0000 C   0  0  0  0  0  0  0  0  0  0  0  0
    0.0000    7.3792    0.0000 O   0  0  0  0  0  0  0  0  0  0  0  0
    5.3667    7.3792    0.0000 O   0  0  0  0  0  0  0  0  0  0  0  0
    2.6417   12.1167    0.0000 O   0  0  0  0  0  0  0  0  0  0  0  0
    3.8167    5.1167    0.0000 C   0  0  0  0  0  0  0  0  0  0  0  0
    3.8167    1.2208    0.0000 C   0  0  0  0  0  0  0  0  0  0  0  0
    3.8167    3.8625    0.0000 C   0  0  0  0  0  0  0  0  0  0  0  0
    3.8167    0.0000    0.0000 F   0  0  0  0  0  0  0  0  0  0  0  0
    4.8167    1.8958    0.0000 C   0  0  0  0  0  0  0  0  0  0  0  0
    2.6417    1.8958    0.0000 C   0  0  0  0  0  0  0  0  0  0  0  0
    4.8167    3.1958    0.0000 C   0  0  0  0  0  0  0  0  0  0  0  0
    2.6417    3.1958    0.0000 C   0  0  0  0  0  0  0  0  0  0  0  0
    9.7292   11.6167    0.0000 C   0  0  0  0  0  0  0  0  0  0  0  0
  2  3  1  0  0  0  0
  3  1  1  0  0  0  0
  4  1  1  0  0  0  0
  5  4  1  0  0  0  0
  6  5  1  0  0  0  0
  7  2  2  0  0  0  0
  8  7  1  0  0  0  0
  9  8  1  0  0  0  0
 10  1  1  0  0  0  0
 11  9  1  0  0  0  0
 12  8  2  0  0  0  0
 13 12  1  0  0  0  0
 14  4  2  0  0  0  0
 15  3  2  0  0  0  0
 16  6  2  0  0  0  0
 17 10  1  0  0  0  0
 18 22  2  0  0  0  0
 19 17  1  0  0  0  0
 20 18  1  0  0  0  0
 21 23  2  0  0  0  0
 22 24  1  0  0  0  0
 23 19  1  0  0  0  0
 24 19  2  0  0  0  0
 25 11  1  0  0  0  0
  2  6  1  0  0  0  0
 21 18  1  0  0  0  0
 13 11  2  0  0  0  0
M  END
>  <ID> (7118489)
7118489

>  <Supplier> (7118489)
ChemBridge

>  <clogP> (7118489)
3.510000000000000e+000

>  <RB> (7118489)
4

>  <tPSA> (7118489)
6.647999999999998e+001

>  <Hacc> (7118489)
3

>  <Hdon> (7118489)
1

>  <LogSw> (7118489)
-4.811000000000000e+000

>  <Group> (7118489)
1

>  <Core> (7118489)
006

$$$$
7118486
  -ISIS-  03310818252D

 23 24  0  0  0  0  0  0  0  0999 V2000
   -6.1542    7.1792    0.0000 C   0  0  0  0  0  0  0  0  0  0  0  0
   -2.9625    7.1792    0.0000 C   0  0  0  0  0  0  0  0  0  0  0  0
   -7.7167    9.8667    0.0000 C   0  0  0  0  0  0  0  0  0  0  0  0
   -7.7167    4.3667    0.0000 C   0  0  0  0  0  0  0  0  0  0  0  0
   -1.4000    9.8667    0.0000 O   0  0  0  0  0  0  0  0  0  0  0  0
   -1.4000    4.3667    0.0000 N   0  0  0  0  0  0  0  0  0  0  0  0
  -10.8375    9.8667    0.0000 C   0  0  0  0  0  0  0  0  0  0  0  0
  -10.8375    4.3667    0.0000 C   0  0  0  0  0  0  0  0  0  0  0  0
   -6.0792   12.6792    0.0000 Cl  0  0  0  0  0  0  0  0  0  0  0  0
  -12.4792    1.5625    0.0000 S   0  0  0  0  0  0  0  0  0  0  0  0
    8.1042   -1.0042    0.0000 C   0  0  0  0  0  0  0  0  0  0  0  0
  -12.4042    7.1792    0.0000 C   0  0  0  0  0  0  0  0  0  0  0  0
   11.2292   -6.5042    0.0000 C   0  0  0  0  0  0  0  0  0  0  0  0
   11.2292   -1.0042    0.0000 C   0  0  0  0  0  0  0  0  0  0  0  0
    6.5500   -3.8167    0.0000 C   0  0  0  0  0  0  0  0  0  0  0  0
    8.1042   -6.5042    0.0000 C   0  0  0  0  0  0  0  0  0  0  0  0
   12.8000   -3.8167    0.0000 C   0  0  0  0  0  0  0  0  0  0  0  0
    6.4667    1.6708    0.0000 O   0  0  0  0  0  0  0  0  0  0  0  0
    1.7875    4.3667    0.0000 C   0  0  0  0  0  0  0  0  0  0  0  0
  -10.8375   -1.1292    0.0000 C   0  0  0  0  0  0  0  0  0  0  0  0
   12.8667   -9.3167    0.0000 C   0  0  0  0  0  0  0  0  0  0  0  0
    3.3500    1.6708    0.0000 C   0  0  0  0  0  0  0  0  0  0  0  0
   16.0000   -9.4000    0.0000 C   0  0  0  0  0  0  0  0  0  0  0  0
  2  1  1  0  0  0  0
  3  1  2  0  0  0  0
  4  1  1  0  0  0  0
  5  2  2  0  0  0  0
  6  2  1  0  0  0  0
  7  3  1  0  0  0  0
  8  4  2  0  0  0  0
  9  3  1  0  0  0  0
 10  8  1  0  0  0  0
 11 18  1  0  0  0  0
 12  8  1  0  0  0  0
 13 16  1  0  0  0  0
 14 11  2  0  0  0  0
 15 11  1  0  0  0  0
 16 15  2  0  0  0  0
 17 14  1  0  0  0  0
 18 22  1  0  0  0  0
 19  6  1  0  0  0  0
 20 10  1  0  0  0  0
 21 13  1  0  0  0  0
 22 19  1  0  0  0  0
 23 21  1  0  0  0  0
 12  7  2  0  0  0  0
 13 17  2  0  0  0  0
M  END
>  <ID> (7118486)
7118486

>  <Supplier> (7118486)
ChemBridge

>  <clogP> (7118486)
4.590000000000000e+000

>  <RB> (7118486)
5

>  <tPSA> (7118486)
3.833000000000000e+001

>  <Hacc> (7118486)
2

>  <Hdon> (7118486)
1

>  <LogSw> (7118486)
-5.671000000000000e+000

>  <Group> (7118486)
2

>  <Core> (7118486)
523

$$$$
7410251
  -ISIS-  03310818262D

 27 28  0  0  0  0  0  0  0  0999 V2000
   -2.3833   -0.4042    0.0000 N   0  3  0  0  0  0  0  0  0  0  0  0
   -1.7333   -0.7792    0.0000 C   0  0  0  0  0  0  0  0  0  0  0  0
    2.8167   -0.4042    0.0000 C   0  0  0  0  0  0  0  0  0  0  0  0
    4.7625   -0.7792    0.0000 C   0  0  0  0  0  0  0  0  0  0  0  0
    2.1667   -0.7792    0.0000 N   0  0  0  0  0  0  0  0  0  0  0  0
    4.1167   -0.4042    0.0000 C   0  0  0  0  0  0  0  0  0  0  0  0
    4.7625   -1.5292    0.0000 C   0  0  0  0  0  0  0  0  0  0  0  0
    3.4667   -0.7792    0.0000 N   0  0  0  0  0  0  0  0  0  0  0  0
    1.5167   -0.4042    0.0000 C   0  0  0  0  0  0  0  0  0  0  0  0
   -1.7333   -1.5292    0.0000 C   0  0  0  0  0  0  0  0  0  0  0  0
    0.8667   -0.7792    0.0000 C   0  0  0  0  0  0  0  0  0  0  0  0
   -2.3833    0.3458    0.0000 O   0  5  0  0  0  0  0  0  0  0  0  0
    2.8167    0.3458    0.0000 S   0  0  0  0  0  0  0  0  0  0  0  0
   -1.0833   -0.4042    0.0000 C   0  0  0  0  0  0  0  0  0  0  0  0
   -3.0333   -0.7792    0.0000 O   0  0  0  0  0  0  0  0  0  0  0  0
    0.2167   -0.4042    0.0000 C   0  0  0  0  0  0  0  0  0  0  0  0
    5.4125   -1.9042    0.0000 O   0  0  0  0  0  0  0  0  0  0  0  0
    1.5167    0.3458    0.0000 O   0  0  0  0  0  0  0  0  0  0  0  0
   -0.4333   -0.7792    0.0000 C   0  0  0  0  0  0  0  0  0  0  0  0
   -1.0833   -1.9042    0.0000 C   0  0  0  0  0  0  0  0  0  0  0  0
    4.1125   -1.9042    0.0000 N   0  0  0  0  0  0  0  0  0  0  0  0
   -2.3833   -1.9042    0.0000 Cl  0  0  0  0  0  0  0  0  0  0  0  0
   -0.4333   -1.5292    0.0000 C   0  0  0  0  0  0  0  0  0  0  0  0
    5.4167   -0.4042    0.0000 C   0  0  0  0  0  0  0  0  0  0  0  0
    4.1167    0.3458    0.0000 C   0  0  0  0  0  0  0  0  0  0  0  0
    5.4167    0.3458    0.0000 C   0  0  0  0  0  0  0  0  0  0  0  0
    4.7625    0.7250    0.0000 C   0  0  0  0  0  0  0  0  0  0  0  0
  2  1  1  0  0  0  0
  3  5  1  0  0  0  0
  4  6  2  0  0  0  0
  5  9  1  0  0  0  0
  6  8  1  0  0  0  0
  7  4  1  0  0  0  0
  8  3  1  0  0  0  0
  9 11  1  0  0  0  0
 10  2  1  0  0  0  0
 11 16  2  0  0  0  0
 12  1  1  0  0  0  0
 13  3  2  0  0  0  0
 14  2  2  0  0  0  0
 15  1  2  0  0  0  0
 16 19  1  0  0  0  0
 17  7  2  0  0  0  0
 18  9  2  0  0  0  0
 19 14  1  0  0  0  0
 20 10  2  0  0  0  0
 21  7  1  0  0  0  0
 22 10  1  0  0  0  0
 23 19  2  0  0  0  0
 24  4  1  0  0  0  0
 25  6  1  0  0  0  0
 26 27  1  0  0  0  0
 27 25  2  0  0  0  0
 20 23  1  0  0  0  0
 24 26  2  0  0  0  0
M  CHG  2   1   1  12  -1
M  END
>  <ID> (7410251)
7410251

>  <Supplier> (7410251)
ChemBridge

>  <clogP> (7410251)
3.092000000000000e+000

>  <RB> (7410251)
4

>  <tPSA> (7410251)
1.273600000000000e+002

>  <Hacc> (7410251)
4

>  <Hdon> (7410251)
3

>  <LogSw> (7410251)
-4.271000000000002e+000

>  <Group> (7410251)
1

>  <Core> (7410251)
435

$$$$
5153688
  -ISIS-  03310818212D

 20 21  0  0  0  0  0  0  0  0999 V2000
   -2.6708   -2.4875    0.0000 C   0  0  0  0  0  0  0  0  0  0  0  0
   -0.4458   -1.8792    0.0000 N   0  0  0  0  0  0  0  0  0  0  0  0
    1.7500   -1.2667    0.0000 C   0  0  0  0  0  0  0  0  0  0  0  0
   -1.3958   -2.8167    0.0000 N   0  0  0  0  0  0  0  0  0  0  0  0
   -3.6000   -3.4292    0.0000 O   0  0  0  0  0  0  0  0  0  0  0  0
    3.0500   -1.6167    0.0000 C   0  0  0  0  0  0  0  0  0  0  0  0
    0.8167   -2.2042    0.0000 C   0  0  0  0  0  0  0  0  0  0  0  0
   -2.9958   -1.2167    0.0000 C   0  0  0  0  0  0  0  0  0  0  0  0
   -2.0625   -0.2542    0.0000 O   0  0  0  0  0  0  0  0  0  0  0  0
    3.4042   -2.9042    0.0000 Cl  0  0  0  0  0  0  0  0  0  0  0  0
   -2.3833    1.0000    0.0000 C   0  0  0  0  0  0  0  0  0  0  0  0
    1.4042    0.0000    0.0000 C   0  0  0  0  0  0  0  0  0  0  0  0
    3.9792   -0.6792    0.0000 C   0  0  0  0  0  0  0  0  0  0  0  0
   -3.6625    1.3458    0.0000 C   0  0  0  0  0  0  0  0  0  0  0  0
   -1.4500    1.9583    0.0000 C   0  0  0  0  0  0  0  0  0  0  0  0
    2.3375    0.9458    0.0000 C   0  0  0  0  0  0  0  0  0  0  0  0
    3.6375    0.6000    0.0000 C   0  0  0  0  0  0  0  0  0  0  0  0
   -1.7708    3.2125    0.0000 C   0  0  0  0  0  0  0  0  0  0  0  0
   -4.0000    2.6208    0.0000 C   0  0  0  0  0  0  0  0  0  0  0  0
   -3.0708    3.5708    0.0000 C   0  0  0  0  0  0  0  0  0  0  0  0
  2  4  1  0  0  0  0
  3  7  1  0  0  0  0
  4  1  1  0  0  0  0
  5  1  2  0  0  0  0
  6  3  1  0  0  0  0
  7  2  2  0  0  0  0
  8  1  1  0  0  0  0
  9  8  1  0  0  0  0
 10  6  1  0  0  0  0
 11  9  1  0  0  0  0
 12  3  2  0  0  0  0
 13  6  2  0  0  0  0
 14 11  2  0  0  0  0
 15 11  1  0  0  0  0
 16 12  1  0  0  0  0
 17 16  2  0  0  0  0
 18 15  2  0  0  0  0
 19 14  1  0  0  0  0
 20 18  1  0  0  0  0
 20 19  2  0  0  0  0
 13 17  1  0  0  0  0
M  END
>  <ID> (5153688)
5153688

>  <Supplier> (5153688)
ChemBridge

>  <clogP> (5153688)
3.390000000000000e+000

>  <RB> (5153688)
5

>  <tPSA> (5153688)
5.069000000000000e+001

>  <Hacc> (5153688)
3

>  <Hdon> (5153688)
1

>  <LogSw> (5153688)
-4.201000000000001e+000

>  <Group> (5153688)
2

>  <Core> (5153688)
315

$$$$
7949022
  -ISIS-  03310818272D

 23 25  0  0  0  0  0  0  0  0999 V2000
    4.0625    1.8000    0.0000 C   0  0  0  0  0  0  0  0  0  0  0  0
    4.4375    1.1500    0.0000 C   0  0  0  0  0  0  0  0  0  0  0  0
    4.4375    2.4583    0.0000 C   0  0  0  0  0  0  0  0  0  0  0  0
    6.6875    3.7458    0.0000 N   0  3  0  0  0  0  0  0  0  0  0  0
    5.1875    1.1500    0.0000 O   0  0  0  0  0  0  0  0  0  0  0  0
    3.3125    1.8000    0.0000 C   0  0  0  0  0  0  0  0  0  0  0  0
    5.1875    2.4583    0.0000 C   0  0  0  0  0  0  0  0  0  0  0  0
    5.5625    1.8000    0.0000 C   0  0  0  0  0  0  0  0  0  0  0  0
    6.3125    3.0958    0.0000 C   0  0  0  0  0  0  0  0  0  0  0  0
    5.5625    3.0958    0.0000 C   0  0  0  0  0  0  0  0  0  0  0  0
    2.9375    2.4583    0.0000 N   0  0  0  0  0  0  0  0  0  0  0  0
    2.1167    3.7833    0.0000 S   0  0  0  0  0  0  0  0  0  0  0  0
    1.8125    3.0958    0.0000 C   0  0  0  0  0  0  0  0  0  0  0  0
    7.4375    3.7458    0.0000 O   0  5  0  0  0  0  0  0  0  0  0  0
    6.3125    4.3917    0.0000 O   0  0  0  0  0  0  0  0  0  0  0  0
    4.0625    0.5000    0.0000 O   0  0  0  0  0  0  0  0  0  0  0  0
    1.5625    4.2792    0.0000 C   0  0  0  0  0  0  0  0  0  0  0  0
    2.9375    1.1500    0.0000 O   0  0  0  0  0  0  0  0  0  0  0  0
    1.0667    3.1750    0.0000 C   0  0  0  0  0  0  0  0  0  0  0  0
    6.3125    1.8000    0.0000 C   0  0  0  0  0  0  0  0  0  0  0  0
    6.6875    2.4583    0.0000 C   0  0  0  0  0  0  0  0  0  0  0  0
    0.9125    3.9083    0.0000 C   0  0  0  0  0  0  0  0  0  0  0  0
    2.1875    2.4583    0.0000 C   0  0  0  0  0  0  0  0  0  0  0  0
  2  1  1  0  0  0  0
  3  1  2  0  0  0  0
  4  9  1  0  0  0  0
  5  2  1  0  0  0  0
  6  1  1  0  0  0  0
  7  3  1  0  0  0  0
  8  7  2  0  0  0  0
  9 10  2  0  0  0  0
 10  7  1  0  0  0  0
 11  6  1  0  0  0  0
 12 13  1  0  0  0  0
 13 23  1  0  0  0  0
 14  4  1  0  0  0  0
 15  4  2  0  0  0  0
 16  2  2  0  0  0  0
 17 12  1  0  0  0  0
 18  6  2  0  0  0  0
 19 13  2  0  0  0  0
 20  8  1  0  0  0  0
 21  9  1  0  0  0  0
 22 19  1  0  0  0  0
 23 11  1  0  0  0  0
  5  8  1  0  0  0  0
 20 21  2  0  0  0  0
 22 17  2  0  0  0  0
M  CHG  2   4   1  14  -1
M  END
>  <ID> (7949022)
7949022

>  <Supplier> (7949022)
ChemBridge

>  <clogP> (7949022)
2.323000000000000e+000

>  <RB> (7949022)
3

>  <tPSA> (7949022)
1.024500000000000e+002

>  <Hacc> (7949022)
5

>  <Hdon> (7949022)
1

>  <LogSw> (7949022)
-3.983000000000000e+000

>  <Group> (7949022)
2

>  <Core> (7949022)
077

$$$$
6976412
  -ISIS-  03310818252D

 25 27  0  0  0  0  0  0  0  0999 V2000
    7.3250    2.8375    0.0000 S   0  0  3  0  0  0  0  0  0  0  0  0
    6.1000    2.1458    0.0000 C   0  0  0  0  0  0  0  0  0  0  0  0
    8.5375    3.5000    0.0000 N   0  0  0  0  0  0  0  0  0  0  0  0
    4.8625    2.8500    0.0000 C   0  0  0  0  0  0  0  0  0  0  0  0
    3.6500    2.1625    0.0000 C   0  0  0  0  0  0  0  0  0  0  0  0
    6.6292    4.0417    0.0000 O   0  0  0  0  0  0  0  0  0  0  0  0
    8.0042    1.5875    0.0000 O   0  0  0  0  0  0  0  0  0  0  0  0
    6.1000    0.7333    0.0000 C   0  0  0  0  0  0  0  0  0  0  0  0
    9.7542    2.8083    0.0000 C   0  0  3  0  0  0  0  0  0  0  0  0
    3.6500    0.7333    0.0000 C   0  0  0  0  0  0  0  0  0  0  0  0
    4.8625    0.0375    0.0000 C   0  0  0  0  0  0  0  0  0  0  0  0
   10.9542    3.4833    0.0000 C   0  0  0  0  0  0  0  0  0  0  0  0
    2.4250    0.0208    0.0000 O   0  0  0  0  0  0  0  0  0  0  0  0
    4.8792    4.2292    0.0000 C   0  0  0  0  0  0  0  0  0  0  0  0
    2.4375    2.8500    0.0000 C   0  0  0  0  0  0  0  0  0  0  0  0
    9.7542    1.3958    0.0000 C   0  0  0  0  0  0  0  0  0  0  0  0
   10.9542    4.8667    0.0000 C   0  0  0  0  0  0  0  0  0  0  0  0
   12.1792    2.7958    0.0000 C   0  0  0  0  0  0  0  0  0  0  0  0
    1.2042    0.7208    0.0000 C   0  0  0  0  0  0  0  0  0  0  0  0
    3.6667    4.9292    0.0000 C   0  0  0  0  0  0  0  0  0  0  0  0
    2.4375    4.2292    0.0000 C   0  0  0  0  0  0  0  0  0  0  0  0
    0.0000    0.0000    0.0000 C   0  0  0  0  0  0  0  0  0  0  0  0
   12.1792    5.5792    0.0000 C   0  0  0  0  0  0  0  0  0  0  0  0
   13.3917    3.4708    0.0000 C   0  0  0  0  0  0  0  0  0  0  0  0
   13.3917    4.8667    0.0000 C   0  0  0  0  0  0  0  0  0  0  0  0
  2  1  1  0  0  0  0
  3  1  1  0  0  0  0
  4  2  1  0  0  0  0
  5  4  1  0  0  0  0
  6  1  2  0  0  0  0
  7  1  2  0  0  0  0
  8  2  2  0  0  0  0
  9  3  1  0  0  0  0
 10 11  2  0  0  0  0
 11  8  1  0  0  0  0
 12  9  1  0  0  0  0
 13 10  1  0  0  0  0
 14  4  2  0  0  0  0
 15  5  2  0  0  0  0
 16  9  1  0  0  0  0
 17 12  1  0  0  0  0
 18 12  2  0  0  0  0
 19 13  1  0  0  0  0
 20 14  1  0  0  0  0
 21 20  2  0  0  0  0
 22 19  1  0  0  0  0
 23 17  2  0  0  0  0
 24 18  1  0  0  0  0
 25 24  2  0  0  0  0
  5 10  1  0  0  0  0
 15 21  1  0  0  0  0
 23 25  1  0  0  0  0
M  END
>  <ID> (6976412)
6976412

>  <Supplier> (6976412)
ChemBridge

>  <clogP> (6976412)
4.970000000000002e+000

>  <RB> (6976412)
3

>  <tPSA> (6976412)
5.540000000000000e+001

>  <Hacc> (6976412)
4

>  <Hdon> (6976412)
1

>  <LogSw> (6976412)
-6.036000000000001e+000

>  <Group> (6976412)
3

>  <Core> (6976412)
519

$$$$
7949021
  -ISIS-  03310818272D

 26 28  0  0  0  0  0  0  0  0999 V2000
    2.9250    1.8458    0.0000 N   0  0  3  0  0  0  0  0  0  0  0  0
    5.5250    1.0958    0.0000 C   0  0  0  0  0  0  0  0  0  0  0  0
    4.8750    0.7208    0.0000 N   0  0  0  0  0  0  0  0  0  0  0  0
    5.5250    1.8458    0.0000 O   0  0  0  0  0  0  0  0  0  0  0  0
    2.2750    2.2208    0.0000 C   0  0  0  0  0  0  0  0  0  0  0  0
    3.5750    0.7208    0.0000 C   0  0  0  0  0  0  0  0  0  0  0  0
    4.2250    1.8458    0.0000 C   0  0  0  0  0  0  0  0  0  0  0  0
    4.2250    1.0958    0.0000 C   0  0  3  0  0  0  0  0  0  0  0  0
    3.5750    2.2208    0.0000 C   0  0  0  0  0  0  0  0  0  0  0  0
    2.9250    1.0958    0.0000 C   0  0  0  0  0  0  0  0  0  0  0  0
    6.1750    0.7208    0.0000 C   0  0  0  0  0  0  0  0  0  0  0  0
    7.4667    0.7208    0.0000 C   0  0  0  0  0  0  0  0  0  0  0  0
    8.7667   -0.0292    0.0000 C   0  0  0  0  0  0  0  0  0  0  0  0
    6.8250    1.0958    0.0000 C   0  0  0  0  0  0  0  0  0  0  0  0
    1.6292    1.8458    0.0000 C   0  0  0  0  0  0  0  0  0  0  0  0
    8.1167    1.0958    0.0000 C   0  0  0  0  0  0  0  0  0  0  0  0
    7.4667   -0.0292    0.0000 C   0  0  0  0  0  0  0  0  0  0  0  0
    8.1167   -0.4042    0.0000 C   0  0  0  0  0  0  0  0  0  0  0  0
    8.7667    0.7208    0.0000 C   0  0  0  0  0  0  0  0  0  0  0  0
    9.4167   -0.4042    0.0000 O   0  0  0  0  0  0  0  0  0  0  0  0
    0.9792    2.2208    0.0000 C   0  0  0  0  0  0  0  0  0  0  0  0
    1.6292    1.0958    0.0000 C   0  0  0  0  0  0  0  0  0  0  0  0
   10.0667   -0.0292    0.0000 C   0  0  0  0  0  0  0  0  0  0  0  0
    0.3292    1.8458    0.0000 C   0  0  0  0  0  0  0  0  0  0  0  0
    0.9792    0.7208    0.0000 C   0  0  0  0  0  0  0  0  0  0  0  0
    0.3292    1.0958    0.0000 C   0  0  0  0  0  0  0  0  0  0  0  0
  2  3  1  0  0  0  0
  3  8  1  0  0  0  0
  4  2  2  0  0  0  0
  5  1  1  0  0  0  0
  6 10  1  0  0  0  0
  7  9  1  0  0  0  0
  8  6  1  0  0  0  0
  9  1  1  0  0  0  0
 10  1  1  0  0  0  0
 11  2  1  0  0  0  0
 12 14  1  0  0  0  0
 13 18  2  0  0  0  0
 14 11  1  0  0  0  0
 15  5  1  0  0  0  0
 16 12  1  0  0  0  0
 17 12  2  0  0  0  0
 18 17  1  0  0  0  0
 19 16  2  0  0  0  0
 20 13  1  0  0  0  0
 21 15  2  0  0  0  0
 22 15  1  0  0  0  0
 23 20  1  0  0  0  0
 24 21  1  0  0  0  0
 25 22  2  0  0  0  0
 26 25  1  0  0  0  0
  7  8  1  0  0  0  0
 24 26  2  0  0  0  0
 19 13  1  0  0  0  0
M  END
>  <ID> (7949021)
7949021

>  <Supplier> (7949021)
ChemBridge

>  <clogP> (7949021)
2.784000000000000e+000

>  <RB> (7949021)
6

>  <tPSA> (7949021)
4.156999999999997e+001

>  <Hacc> (7949021)
3

>  <Hdon> (7949021)
1

>  <LogSw> (7949021)
-4.148000000000000e+000

>  <Group> (7949021)
3

$$$$
7124448
  -ISIS-  03310818252D

 25 27  0  0  0  0  0  0  0  0999 V2000
    1.6292    0.4500    0.0000 C   0  0  0  0  0  0  0  0  0  0  0  0
    2.4292    0.0833    0.0000 S   0  0  0  0  0  0  0  0  0  0  0  0
    1.7167    1.3000    0.0000 N   0  0  0  0  0  0  0  0  0  0  0  0
    2.5792    1.4833    0.0000 N   0  0  0  0  0  0  0  0  0  0  0  0
    3.0042    0.7458    0.0000 C   0  0  0  0  0  0  0  0  0  0  0  0
    0.8667    0.0000    0.0000 N   0  0  0  0  0  0  0  0  0  0  0  0
    0.0000    0.0000    0.0000 C   0  0  0  0  0  0  0  0  0  0  0  0
   -0.2125    0.8500    0.0000 C   0  0  0  0  0  0  0  0  0  0  0  0
   -1.0333    1.1333    0.0000 C   0  0  3  0  0  0  0  0  0  0  0  0
   -0.5208   -0.7375    0.0000 O   0  0  0  0  0  0  0  0  0  0  0  0
    3.9042    0.7458    0.0000 C   0  0  0  0  0  0  0  0  0  0  0  0
   -1.6708    0.5458    0.0000 C   0  0  0  0  0  0  0  0  0  0  0  0
    4.3375    1.5000    0.0000 C   0  0  0  0  0  0  0  0  0  0  0  0
    5.2167    3.0208    0.0000 C   0  0  0  0  0  0  0  0  0  0  0  0
    5.6667    3.7833    0.0000 Cl  0  0  0  0  0  0  0  0  0  0  0  0
    5.6500    2.2458    0.0000 C   0  0  0  0  0  0  0  0  0  0  0  0
    4.3375    3.0208    0.0000 C   0  0  0  0  0  0  0  0  0  0  0  0
    5.2167    1.5000    0.0000 C   0  0  0  0  0  0  0  0  0  0  0  0
    3.9042    2.2458    0.0000 C   0  0  0  0  0  0  0  0  0  0  0  0
   -1.2125    1.9708    0.0000 C   0  0  0  0  0  0  0  0  0  0  0  0
   -2.4833    0.8208    0.0000 C   0  0  0  0  0  0  0  0  0  0  0  0
   -1.4708   -0.2875    0.0000 C   0  0  0  0  0  0  0  0  0  0  0  0
   -3.1458    0.2208    0.0000 C   0  0  0  0  0  0  0  0  0  0  0  0
   -2.1125   -0.9000    0.0000 C   0  0  0  0  0  0  0  0  0  0  0  0
   -2.9708   -0.6292    0.0000 C   0  0  0  0  0  0  0  0  0  0  0  0
  2  1  1  0  0  0  0
  3  1  2  0  0  0  0
  4  3  1  0  0  0  0
  5  2  1  0  0  0  0
  6  1  1  0  0  0  0
  7  6  1  0  0  0  0
  8  7  1  0  0  0  0
  9  8  1  0  0  0  0
 10  7  2  0  0  0  0
 11  5  1  0  0  0  0
 12  9  1  0  0  0  0
 13 11  1  0  0  0  0
 14 17  1  0  0  0  0
 15 14  1  0  0  0  0
 16 18  1  0  0  0  0
 17 19  2  0  0  0  0
 18 13  2  0  0  0  0
 19 13  1  0  0  0  0
 20  9  1  0  0  0  0
 21 12  1  0  0  0  0
 22 12  2  0  0  0  0
 23 21  2  0  0  0  0
 24 22  1  0  0  0  0
 25 24  2  0  0  0  0
  4  5  2  0  0  0  0
 14 16  2  0  0  0  0
 23 25  1  0  0  0  0
M  END
>  <ID> (7124448)
7124448

>  <Supplier> (7124448)
ChemBridge

>  <clogP> (7124448)
4.800000000000000e+000

>  <RB> (7124448)
6

>  <tPSA> (7124448)
5.488000000000000e+001

>  <Hacc> (7124448)
3

>  <Hdon> (7124448)
1

>  <LogSw> (7124448)
-6.011000000000000e+000

>  <Group> (7124448)
3

>  <Core> (7124448)
246

$$$$
7124447
  -ISIS-  03310818252D

 29 31  0  0  0  0  0  0  0  0999 V2000
   -1.5833   -1.8000    0.0000 S   0  0  3  0  0  0  0  0  0  0  0  0
   -1.5833   -0.9750    0.0000 N   0  0  3  0  0  0  0  0  0  0  0  0
    1.2750    0.6833    0.0000 C   0  0  0  0  0  0  0  0  0  0  0  0
    1.9875    0.2708    0.0000 N   0  0  0  0  0  0  0  0  0  0  0  0
    1.9875   -0.5625    0.0000 C   0  0  0  0  0  0  0  0  0  0  0  0
   -0.7583   -1.8000    0.0000 O   0  0  0  0  0  0  0  0  0  0  0  0
   -1.1708   -2.5125    0.0000 O   0  0  0  0  0  0  0  0  0  0  0  0
   -0.8708   -0.5542    0.0000 C   0  0  0  0  0  0  0  0  0  0  0  0
    0.5542    0.2708    0.0000 C   0  0  0  0  0  0  0  0  0  0  0  0
   -2.2958   -0.5625    0.0000 C   0  0  0  0  0  0  0  0  0  0  0  0
    1.2750    1.5083    0.0000 O   0  0  0  0  0  0  0  0  0  0  0  0
    2.7000   -0.9667    0.0000 C   0  0  0  0  0  0  0  0  0  0  0  0
   -0.8708    0.2625    0.0000 C   0  0  0  0  0  0  0  0  0  0  0  0
   -0.1583   -0.9667    0.0000 C   0  0  0  0  0  0  0  0  0  0  0  0
    0.5542   -0.5542    0.0000 C   0  0  0  0  0  0  0  0  0  0  0  0
   -0.1625    0.6833    0.0000 C   0  0  0  0  0  0  0  0  0  0  0  0
   -2.2958   -2.2042    0.0000 C   0  0  0  0  0  0  0  0  0  0  0  0
   -3.0125   -0.9750    0.0000 C   0  0  0  0  0  0  0  0  0  0  0  0
    3.4167   -0.5625    0.0000 Br  0  0  0  0  0  0  0  0  0  0  0  0
   -4.4458   -1.7917    0.0000 C   0  0  0  0  0  0  0  0  0  0  0  0
   -3.0125   -1.7917    0.0000 C   0  0  0  0  0  0  0  0  0  0  0  0
   -3.7250   -0.5542    0.0000 C   0  0  0  0  0  0  0  0  0  0  0  0
   -4.4375   -0.9667    0.0000 C   0  0  0  0  0  0  0  0  0  0  0  0
   -3.7250   -2.2042    0.0000 C   0  0  0  0  0  0  0  0  0  0  0  0
    1.2667   -0.9667    0.0000 C   0  0  0  0  0  0  0  0  0  0  0  0
    2.6917   -1.7917    0.0000 C   0  0  0  0  0  0  0  0  0  0  0  0
   -5.1583   -2.2042    0.0000 C   0  0  0  0  0  0  0  0  0  0  0  0
    1.2667   -1.7917    0.0000 C   0  0  0  0  0  0  0  0  0  0  0  0
    1.9750   -2.2042    0.0000 C   0  0  0  0  0  0  0  0  0  0  0  0
  2  1  1  0  0  0  0
  3  9  1  0  0  0  0
  4  3  1  0  0  0  0
  5  4  1  0  0  0  0
  6  1  2  0  0  0  0
  7  1  2  0  0  0  0
  8  2  1  0  0  0  0
  9 15  2  0  0  0  0
 10  2  1  0  0  0  0
 11  3  2  0  0  0  0
 12  5  1  0  0  0  0
 13  8  1  0  0  0  0
 14  8  2  0  0  0  0
 15 14  1  0  0  0  0
 16 13  2  0  0  0  0
 17  1  1  0  0  0  0
 18 10  1  0  0  0  0
 19 12  1  0  0  0  0
 20 23  2  0  0  0  0
 21 18  1  0  0  0  0
 22 18  2  0  0  0  0
 23 22  1  0  0  0  0
 24 21  2  0  0  0  0
 25  5  2  0  0  0  0
 26 12  2  0  0  0  0
 27 20  1  0  0  0  0
 28 25  1  0  0  0  0
 29 28  2  0  0  0  0
 16  9  1  0  0  0  0
 24 20  1  0  0  0  0
 29 26  1  0  0  0  0
M  END
>  <ID> (7124447)
7124447

>  <Supplier> (7124447)
ChemBridge

>  <clogP> (7124447)
4.220000000000000e+000

>  <RB> (7124447)
5

>  <tPSA> (7124447)
6.647999999999998e+001

>  <Hacc> (7124447)
3

>  <Hdon> (7124447)
1

>  <LogSw> (7124447)
-6.254000000000000e+000

>  <Group> (7124447)
2

>  <Core> (7124447)
154

$$$$
6007774
  -ISIS-  03310818232D

 29 31  0  0  0  0  0  0  0  0999 V2000
    0.3125   -3.7042    0.0000 C   0  0  0  0  0  0  0  0  0  0  0  0
    0.9625   -4.0792    0.0000 C   0  0  0  0  0  0  0  0  0  0  0  0
    4.8542   -0.2042    0.0000 C   0  0  0  0  0  0  0  0  0  0  0  0
    4.7792    0.5458    0.0000 C   0  0  0  0  0  0  0  0  0  0  0  0
    0.3125   -2.9542    0.0000 N   0  0  0  0  0  0  0  0  0  0  0  0
    2.9125   -0.7125    0.0000 C   0  0  0  0  0  0  0  0  0  0  0  0
    1.0417   -4.8292    0.0000 O   0  0  0  0  0  0  0  0  0  0  0  0
    5.3875    0.9833    0.0000 C   0  0  0  0  0  0  0  0  0  0  0  0
    4.2500   -0.6417    0.0000 O   0  0  0  0  0  0  0  0  0  0  0  0
    2.9125   -1.4625    0.0000 N   0  0  0  0  0  0  0  0  0  0  0  0
    1.6417   -3.7792    0.0000 C   0  0  0  0  0  0  0  0  0  0  0  0
   -0.3375   -4.0792    0.0000 O   0  0  0  0  0  0  0  0  0  0  0  0
    5.5417   -0.5042    0.0000 C   0  0  0  0  0  0  0  0  0  0  0  0
    1.7750   -4.9875    0.0000 C   0  0  0  0  0  0  0  0  0  0  0  0
    2.1500   -4.3375    0.0000 C   0  0  0  0  0  0  0  0  0  0  0  0
    2.2667   -0.3375    0.0000 O   0  0  0  0  0  0  0  0  0  0  0  0
    0.9625   -2.5792    0.0000 C   0  0  0  0  0  0  0  0  0  0  0  0
    3.5625   -0.3375    0.0000 C   0  0  0  0  0  0  0  0  0  0  0  0
    2.2542   -1.8375    0.0000 C   0  0  0  0  0  0  0  0  0  0  0  0
    4.0917    0.8500    0.0000 C   0  0  3  0  0  0  0  0  0  0  0  0
    6.0667    0.6833    0.0000 C   0  0  0  0  0  0  0  0  0  0  0  0
    6.1500   -0.0667    0.0000 C   0  0  0  0  0  0  0  0  0  0  0  0
    0.9667   -1.8292    0.0000 C   0  0  0  0  0  0  0  0  0  0  0  0
    1.6125   -2.9542    0.0000 C   0  0  0  0  0  0  0  0  0  0  0  0
    1.6125   -1.4542    0.0000 C   0  0  0  0  0  0  0  0  0  0  0  0
    2.2542   -2.5875    0.0000 C   0  0  0  0  0  0  0  0  0  0  0  0
    4.0167    1.5958    0.0000 C   0  0  0  0  0  0  0  0  0  0  0  0
    3.4875    0.4083    0.0000 C   0  0  0  0  0  0  0  0  0  0  0  0
    6.8292   -0.3750    0.0000 C   0  0  0  0  0  0  0  0  0  0  0  0
  2  1  1  0  0  0  0
  3  9  1  0  0  0  0
  4  3  2  0  0  0  0
  5  1  1  0  0  0  0
  6 10  1  0  0  0  0
  7  2  1  0  0  0  0
  8  4  1  0  0  0  0
  9 18  1  0  0  0  0
 10 19  1  0  0  0  0
 11  2  2  0  0  0  0
 12  1  2  0  0  0  0
 13  3  1  0  0  0  0
 14  7  1  0  0  0  0
 15 11  1  0  0  0  0
 16  6  2  0  0  0  0
 17  5  1  0  0  0  0
 18  6  1  0  0  0  0
 19 26  2  0  0  0  0
 20  4  1  0  0  0  0
 21 22  1  0  0  0  0
 22 13  2  0  0  0  0
 23 17  1  0  0  0  0
 24 17  2  0  0  0  0
 25 23  2  0  0  0  0
 26 24  1  0  0  0  0
 27 20  1  0  0  0  0
 28 20  1  0  0  0  0
 29 22  1  0  0  0  0
 14 15  2  0  0  0  0
 19 25  1  0  0  0  0
 21  8  2  0  0  0  0
M  END
>  <ID> (6007774)
6007774

>  <Supplier> (6007774)
ChemBridge

>  <clogP> (6007774)
4.280000000000000e+000

>  <RB> (6007774)
6

>  <tPSA> (6007774)
8.057000000000002e+001

>  <Hacc> (6007774)
4

>  <Hdon> (6007774)
2

>  <LogSw> (6007774)
-5.716000000000000e+000

>  <Group> (6007774)
3

>  <Core> (6007774)
560

$$$$
7457301
  -ISIS-  03310818262D

 25 26  0  0  0  0  0  0  0  0999 V2000
    1.9292   -3.5917    0.0000 N   0  0  3  0  0  0  0  0  0  0  0  0
    2.1917   -4.2375    0.0000 C   0  0  0  0  0  0  0  0  0  0  0  0
    3.0542   -3.4917    0.0000 C   0  0  0  0  0  0  0  0  0  0  0  0
    2.4625   -3.1292    0.0000 C   0  0  0  0  0  0  0  0  0  0  0  0
    2.8917   -4.1792    0.0000 S   0  0  0  0  0  0  0  0  0  0  0  0
    3.6750   -3.1542    0.0000 C   0  0  0  0  0  0  0  0  0  0  0  0
    4.2875   -3.5167    0.0000 C   0  0  0  0  0  0  0  0  0  0  0  0
    5.5000   -4.2500    0.0000 C   0  0  0  0  0  0  0  0  0  0  0  0
    4.8792   -4.5917    0.0000 C   0  0  0  0  0  0  0  0  0  0  0  0
    4.2667   -4.2292    0.0000 C   0  0  0  0  0  0  0  0  0  0  0  0
    1.8125   -4.8292    0.0000 N   0  0  0  0  0  0  0  0  0  0  0  0
    5.5042   -3.5417    0.0000 C   0  0  0  0  0  0  0  0  0  0  0  0
    4.9042   -3.1792    0.0000 C   0  0  0  0  0  0  0  0  0  0  0  0
    6.1042   -4.6167    0.0000 O   0  0  0  0  0  0  0  0  0  0  0  0
    2.4000   -2.4167    0.0000 O   0  0  0  0  0  0  0  0  0  0  0  0
    1.2375   -3.4375    0.0000 C   0  0  0  0  0  0  0  0  0  0  0  0
    0.7542   -3.9542    0.0000 C   0  0  0  0  0  0  0  0  0  0  0  0
    0.0625   -3.8000    0.0000 C   0  0  0  0  0  0  0  0  0  0  0  0
    3.6542   -4.5667    0.0000 Br  0  0  0  0  0  0  0  0  0  0  0  0
    6.1042   -3.1917    0.0000 O   0  0  0  0  0  0  0  0  0  0  0  0
    6.1000   -5.3250    0.0000 C   0  0  3  0  0  0  0  0  0  0  0  0
    6.1125   -2.4917    0.0000 C   0  0  0  0  0  0  0  0  0  0  0  0
    5.4792   -5.6667    0.0000 C   0  0  0  0  0  0  0  0  0  0  0  0
    6.7000   -5.6875    0.0000 C   0  0  0  0  0  0  0  0  0  0  0  0
    6.7292   -2.1417    0.0000 C   0  0  0  0  0  0  0  0  0  0  0  0
  2  1  1  0  0  0  0
  3  4  1  0  0  0  0
  4  1  1  0  0  0  0
  5  2  1  0  0  0  0
  6  3  2  0  0  0  0
  7  6  1  0  0  0  0
  8 12  2  0  0  0  0
  9 10  2  0  0  0  0
 10  7  1  0  0  0  0
 11  2  2  0  0  0  0
 12 13  1  0  0  0  0
 13  7  2  0  0  0  0
 14  8  1  0  0  0  0
 15  4  2  0  0  0  0
 16  1  1  0  0  0  0
 17 16  1  0  0  0  0
 18 17  2  0  0  0  0
 19 10  1  0  0  0  0
 20 12  1  0  0  0  0
 21 14  1  0  0  0  0
 22 20  1  0  0  0  0
 23 21  1  0  0  0  0
 24 21  1  0  0  0  0
 25 22  1  0  0  0  0
  3  5  1  0  0  0  0
  8  9  1  0  0  0  0
M  END
>  <ID> (7457301)
7457301

>  <Supplier> (7457301)
ChemBridge

>  <clogP> (7457301)
5.251000000000000e+000

>  <RB> (7457301)
4

>  <tPSA> (7457301)
6.262000000000000e+001

>  <Hacc> (7457301)
4

>  <Hdon> (7457301)
1

>  <LogSw> (7457301)
-6.232000000000000e+000

>  <Group> (7457301)
2

$$$$
5669084
  -ISIS-  03310818222D

 20 21  0  0  0  0  0  0  0  0999 V2000
   -1.7125   -0.0292    0.0000 N   0  0  3  0  0  0  0  0  0  0  0  0
   -2.1125   -0.3167    0.0000 C   0  0  0  0  0  0  0  0  0  0  0  0
   -1.4625   -0.8000    0.0000 C   0  0  0  0  0  0  0  0  0  0  0  0
   -1.3125   -0.3167    0.0000 C   0  0  0  0  0  0  0  0  0  0  0  0
   -1.9708   -0.8000    0.0000 S   0  0  0  0  0  0  0  0  0  0  0  0
   -1.1708   -1.2000    0.0000 C   0  0  0  0  0  0  0  0  0  0  0  0
   -0.6833   -1.1500    0.0000 C   0  0  0  0  0  0  0  0  0  0  0  0
   -0.3833   -1.5292    0.0000 C   0  0  0  0  0  0  0  0  0  0  0  0
    0.1000   -1.4667    0.0000 C   0  0  0  0  0  0  0  0  0  0  0  0
   -2.5625   -0.1667    0.0000 S   0  0  0  0  0  0  0  0  0  0  0  0
    0.2792   -1.0167    0.0000 C   0  0  0  0  0  0  0  0  0  0  0  0
   -0.4958   -0.7000    0.0000 C   0  0  0  0  0  0  0  0  0  0  0  0
   -0.8458   -0.1500    0.0000 O   0  0  0  0  0  0  0  0  0  0  0  0
   -0.0125   -0.6500    0.0000 C   0  0  0  0  0  0  0  0  0  0  0  0
   -1.7125    0.4458    0.0000 C   0  0  0  0  0  0  0  0  0  0  0  0
   -0.5625   -1.9792    0.0000 O   0  0  0  0  0  0  0  0  0  0  0  0
    0.3792   -1.8542    0.0000 O   0  0  0  0  0  0  0  0  0  0  0  0
    0.1542   -0.2000    0.0000 Br  0  0  0  0  0  0  0  0  0  0  0  0
    0.2000   -2.3000    0.0000 C   0  0  0  0  0  0  0  0  0  0  0  0
   -2.1208    0.6833    0.0000 C   0  0  0  0  0  0  0  0  0  0  0  0
  2  1  1  0  0  0  0
  3  4  1  0  0  0  0
  4  1  1  0  0  0  0
  5  2  1  0  0  0  0
  6  3  2  0  0  0  0
  7  6  1  0  0  0  0
  8  7  2  0  0  0  0
  9  8  1  0  0  0  0
 10  2  2  0  0  0  0
 11 14  1  0  0  0  0
 12  7  1  0  0  0  0
 13  4  2  0  0  0  0
 14 12  2  0  0  0  0
 15  1  1  0  0  0  0
 16  8  1  0  0  0  0
 17  9  1  0  0  0  0
 18 14  1  0  0  0  0
 19 17  1  0  0  0  0
 20 15  1  0  0  0  0
  3  5  1  0  0  0  0
  9 11  2  0  0  0  0
M  END
>  <ID> (5669084)
5669084

>  <Supplier> (5669084)
ChemBridge

>  <clogP> (5669084)
2.920000000000000e+000

>  <RB> (5669084)
1

>  <tPSA> (5669084)
4.977000000000000e+001

>  <Hacc> (5669084)
3

>  <Hdon> (5669084)
1

>  <LogSw> (5669084)
-4.422000000000000e+000

>  <Group> (5669084)
1

>  <Core> (5669084)
001

$$$$
5226548
  -ISIS-  03310818212D

 24 26  0  0  0  0  0  0  0  0999 V2000
    0.0875    0.3500    0.0000 C   0  0  0  0  0  0  0  0  0  0  0  0
    0.5292   -0.4042    0.0000 O   0  0  0  0  0  0  0  0  0  0  0  0
    0.5292    1.0958    0.0000 C   0  0  0  0  0  0  0  0  0  0  0  0
    3.9875   -0.3875    0.0000 C   0  0  0  0  0  0  0  0  0  0  0  0
    3.1292   -0.4042    0.0000 C   0  0  0  0  0  0  0  0  0  0  0  0
    1.3875    2.5958    0.0000 C   0  0  0  0  0  0  0  0  0  0  0  0
   -0.7708    0.3500    0.0000 O   0  0  0  0  0  0  0  0  0  0  0  0
    4.4292   -1.1500    0.0000 O   0  0  0  0  0  0  0  0  0  0  0  0
    0.0875    1.8500    0.0000 C   0  0  0  0  0  0  0  0  0  0  0  0
    1.3875    1.0958    0.0000 C   0  0  0  0  0  0  0  0  0  0  0  0
    0.5292    2.6125    0.0000 C   0  0  0  0  0  0  0  0  0  0  0  0
    1.8042    1.8333    0.0000 C   0  0  0  0  0  0  0  0  0  0  0  0
    1.8500    3.3333    0.0000 C   0  0  0  0  0  0  0  0  0  0  0  0
    2.6875    0.3500    0.0000 C   0  0  0  0  0  0  0  0  0  0  0  0
    2.6875   -1.1667    0.0000 C   0  0  0  0  0  0  0  0  0  0  0  0
    1.3875   -0.4042    0.0000 C   0  0  0  0  0  0  0  0  0  0  0  0
    1.8292    0.3500    0.0000 C   0  0  0  0  0  0  0  0  0  0  0  0
    1.8292   -1.1667    0.0000 C   0  0  0  0  0  0  0  0  0  0  0  0
    4.4292    0.3500    0.0000 C   0  0  0  0  0  0  0  0  0  0  0  0
    1.4292    4.0875    0.0000 C   0  0  0  0  0  0  0  0  0  0  0  0
    2.7042    3.3125    0.0000 C   0  0  0  0  0  0  0  0  0  0  0  0
    3.1500    4.0417    0.0000 C   0  0  0  0  0  0  0  0  0  0  0  0
    1.8875    4.8292    0.0000 C   0  0  0  0  0  0  0  0  0  0  0  0
    2.7667    4.7792    0.0000 C   0  0  0  0  0  0  0  0  0  0  0  0
  2  1  1  0  0  0  0
  3  1  1  0  0  0  0
  4  5  1  0  0  0  0
  5 15  1  0  0  0  0
  6 12  2  0  0  0  0
  7  1  2  0  0  0  0
  8  4  2  0  0  0  0
  9  3  1  0  0  0  0
 10  3  2  0  0  0  0
 11  9  2  0  0  0  0
 12 10  1  0  0  0  0
 13  6  1  0  0  0  0
 14 17  1  0  0  0  0
 15 18  2  0  0  0  0
 16  2  1  0  0  0  0
 17 16  2  0  0  0  0
 18 16  1  0  0  0  0
 19  4  1  0  0  0  0
 20 13  1  0  0  0  0
 21 13  2  0  0  0  0
 22 21  1  0  0  0  0
 23 20  2  0  0  0  0
 24 22  2  0  0  0  0
 11  6  1  0  0  0  0
 14  5  2  0  0  0  0
 23 24  1  0  0  0  0
M  END
>  <ID> (5226548)
5226548

>  <Supplier> (5226548)
ChemBridge

>  <clogP> (5226548)
5.240000000000000e+000

>  <RB> (5226548)
5

>  <tPSA> (5226548)
4.337000000000000e+001

>  <Hacc> (5226548)
3

>  <Hdon> (5226548)
0

>  <LogSw> (5226548)
-5.982000000000000e+000

>  <Group> (5226548)
1

>  <Core> (5226548)
266

$$$$
5669083
  -ISIS-  03310818222D

 32 36  0  0  0  0  0  0  0  0999 V2000
    3.7667   -2.5542    0.0000 C   0  0  0  0  0  0  0  0  0  0  0  0
    3.7667   -3.1542    0.0000 C   0  0  0  0  0  0  0  0  0  0  0  0
    4.2792   -2.2542    0.0000 C   0  0  0  0  0  0  0  0  0  0  0  0
    4.2875   -3.4500    0.0000 N   0  0  0  0  0  0  0  0  0  0  0  0
    4.8000   -2.5500    0.0000 N   0  0  3  0  0  0  0  0  0  0  0  0
    3.2042   -3.3500    0.0000 S   0  0  0  0  0  0  0  0  0  0  0  0
    3.2000   -2.3792    0.0000 C   0  0  0  0  0  0  0  0  0  0  0  0
    8.1875   -1.3667    0.0000 N   0  3  0  0  0  0  0  0  0  0  0  0
    7.8292   -0.8875    0.0000 C   0  0  0  0  0  0  0  0  0  0  0  0
    7.0000   -1.5042    0.0000 C   0  0  0  0  0  0  0  0  0  0  0  0
    7.2375   -0.9542    0.0000 C   0  0  0  0  0  0  0  0  0  0  0  0
    2.8542   -2.8667    0.0000 C   0  0  0  0  0  0  0  0  0  0  0  0
    4.8042   -3.1500    0.0000 C   0  0  0  0  0  0  0  0  0  0  0  0
    6.4042   -1.6375    0.0000 O   0  0  0  0  0  0  0  0  0  0  0  0
    5.3042   -2.2500    0.0000 N   0  0  0  0  0  0  0  0  0  0  0  0
    7.3042   -2.0167    0.0000 C   0  0  0  0  0  0  0  0  0  0  0  0
    6.3542   -2.2375    0.0000 C   0  0  0  0  0  0  0  0  0  0  0  0
    5.8375   -2.5500    0.0000 C   0  0  0  0  0  0  0  0  0  0  0  0
    8.0667   -0.3375    0.0000 C   0  0  0  0  0  0  0  0  0  0  0  0
    6.8667   -0.4792    0.0000 C   0  0  0  0  0  0  0  0  0  0  0  0
    6.9042   -2.4667    0.0000 C   0  0  0  0  0  0  0  0  0  0  0  0
    7.9500   -1.9167    0.0000 O   0  5  0  0  0  0  0  0  0  0  0  0
    8.7875   -1.3042    0.0000 O   0  0  0  0  0  0  0  0  0  0  0  0
    4.2667   -1.6542    0.0000 O   0  0  0  0  0  0  0  0  0  0  0  0
    7.7042    0.1333    0.0000 C   0  0  0  0  0  0  0  0  0  0  0  0
    7.1042    0.0625    0.0000 C   0  0  0  0  0  0  0  0  0  0  0  0
    2.9542   -1.8375    0.0000 C   0  0  0  0  0  0  0  0  0  0  0  0
    2.2500   -2.8042    0.0000 C   0  0  0  0  0  0  0  0  0  0  0  0
    7.9500    0.6833    0.0000 O   0  0  0  0  0  0  0  0  0  0  0  0
    7.5875    1.1625    0.0000 C   0  0  0  0  0  0  0  0  0  0  0  0
    2.3542   -1.7792    0.0000 C   0  0  0  0  0  0  0  0  0  0  0  0
    2.0042   -2.2667    0.0000 C   0  0  0  0  0  0  0  0  0  0  0  0
  2  1  2  0  0  0  0
  3  1  1  0  0  0  0
  4  2  1  0  0  0  0
  5  3  1  0  0  0  0
  6  2  1  0  0  0  0
  7  1  1  0  0  0  0
  8  9  1  0  0  0  0
  9 11  2  0  0  0  0
 10 14  1  0  0  0  0
 11 10  1  0  0  0  0
 12  7  2  0  0  0  0
 13  5  1  0  0  0  0
 14 17  1  0  0  0  0
 15  5  1  0  0  0  0
 16 21  1  0  0  0  0
 17 18  1  0  0  0  0
 18 15  2  0  0  0  0
 19  9  1  0  0  0  0
 20 11  1  0  0  0  0
 21 17  2  0  0  0  0
 22  8  1  0  0  0  0
 23  8  2  0  0  0  0
 24  3  2  0  0  0  0
 25 26  1  0  0  0  0
 26 20  2  0  0  0  0
 27  7  1  0  0  0  0
 28 12  1  0  0  0  0
 29 25  1  0  0  0  0
 30 29  1  0  0  0  0
 31 27  1  0  0  0  0
 32 31  1  0  0  0  0
 12  6  1  0  0  0  0
  4 13  2  0  0  0  0
 28 32  1  0  0  0  0
 16 10  2  0  0  0  0
 19 25  2  0  0  0  0
M  CHG  2   8   1  22  -1
M  END
>  <ID> (5669083)
5669083

>  <Supplier> (5669083)
ChemBridge

>  <clogP> (5669083)
5.440000000000000e+000

>  <RB> (5669083)
3

>  <tPSA> (5669083)
1.127600000000000e+002

>  <Hacc> (5669083)
7

>  <Hdon> (5669083)
0

>  <LogSw> (5669083)
-7.519000000000000e+000

>  <Group> (5669083)
1

>  <Core> (5669083)
063

$$$$
6215066
  -ISIS-  03310818232D

 21 22  0  0  0  0  0  0  0  0999 V2000
    8.3417   -2.2292    0.0000 C   0  0  0  0  0  0  0  0  0  0  0  0
    8.9917   -1.8542    0.0000 C   0  0  3  0  0  0  0  0  0  0  0  0
    5.6792   -2.2542    0.0000 C   0  0  0  0  0  0  0  0  0  0  0  0
    6.3917   -1.8417    0.0000 N   0  0  0  0  0  0  0  0  0  0  0  0
    5.0292   -1.8792    0.0000 C   0  0  0  0  0  0  0  0  0  0  0  0
    8.3375   -2.9792    0.0000 C   0  0  0  0  0  0  0  0  0  0  0  0
    7.6917   -1.8500    0.0000 C   0  0  0  0  0  0  0  0  0  0  0  0
    7.0375   -2.2167    0.0000 C   0  0  0  0  0  0  0  0  0  0  0  0
    5.6667   -3.0792    0.0000 O   0  0  0  0  0  0  0  0  0  0  0  0
    4.3792   -2.2500    0.0000 C   0  0  0  0  0  0  0  0  0  0  0  0
    9.5917   -1.5167    0.0000 F   0  0  0  0  0  0  0  0  0  0  0  0
    9.7167   -2.1375    0.0000 F   0  0  0  0  0  0  0  0  0  0  0  0
    9.1292   -1.0792    0.0000 F   0  0  0  0  0  0  0  0  0  0  0  0
    7.6792   -3.3500    0.0000 C   0  0  0  0  0  0  0  0  0  0  0  0
    3.7292   -1.8667    0.0000 C   0  0  0  0  0  0  0  0  0  0  0  0
    7.0375   -2.9667    0.0000 C   0  0  0  0  0  0  0  0  0  0  0  0
    8.9792   -3.3542    0.0000 Cl  0  0  0  0  0  0  0  0  0  0  0  0
    3.0750   -2.2417    0.0000 I   0  0  0  0  0  0  0  0  0  0  0  0
    5.0292   -1.1292    0.0000 C   0  0  0  0  0  0  0  0  0  0  0  0
    4.3875   -0.7500    0.0000 C   0  0  0  0  0  0  0  0  0  0  0  0
    3.7292   -1.1167    0.0000 C   0  0  0  0  0  0  0  0  0  0  0  0
  2  1  1  0  0  0  0
  3  4  1  0  0  0  0
  4  8  1  0  0  0  0
  5  3  1  0  0  0  0
  6  1  1  0  0  0  0
  7  1  2  0  0  0  0
  8  7  1  0  0  0  0
  9  3  2  0  0  0  0
 10  5  1  0  0  0  0
 11  2  1  0  0  0  0
 12  2  1  0  0  0  0
 13  2  1  0  0  0  0
 14  6  2  0  0  0  0
 15 10  2  0  0  0  0
 16  8  2  0  0  0  0
 17  6  1  0  0  0  0
 18 15  1  0  0  0  0
 19  5  2  0  0  0  0
 20 19  1  0  0  0  0
 21 20  2  0  0  0  0
 14 16  1  0  0  0  0
 21 15  1  0  0  0  0
M  END
>  <ID> (6215066)
6215066

>  <Supplier> (6215066)
ChemBridge

>  <clogP> (6215066)
5.710000000000000e+000

>  <RB> (6215066)
2

>  <tPSA> (6215066)
2.910000000000000e+001

>  <Hacc> (6215066)
1

>  <Hdon> (6215066)
1

>  <LogSw> (6215066)
-7.179000000000000e+000

>  <Group> (6215066)
1

>  <Core> (6215066)
511

$$$$
5226545
  -ISIS-  03310818212D

 21 22  0  0  0  0  0  0  0  0999 V2000
   -0.5833   -2.0375    0.0000 C   0  0  0  0  0  0  0  0  0  0  0  0
   -1.3333   -1.2667    0.0000 C   0  0  0  0  0  0  0  0  0  0  0  0
   -2.7708    0.2208    0.0000 C   0  0  0  0  0  0  0  0  0  0  0  0
   -0.8625   -3.0375    0.0000 O   0  0  0  0  0  0  0  0  0  0  0  0
   -1.0208   -0.2375    0.0000 C   0  0  0  0  0  0  0  0  0  0  0  0
   -2.3333   -1.5167    0.0000 C   0  0  0  0  0  0  0  0  0  0  0  0
   -1.7708    0.5000    0.0000 C   0  0  0  0  0  0  0  0  0  0  0  0
   -3.0708   -0.7792    0.0000 C   0  0  0  0  0  0  0  0  0  0  0  0
    0.4375   -1.7792    0.0000 N   0  0  0  0  0  0  0  0  0  0  0  0
   -3.5125    0.9958    0.0000 C   0  0  0  0  0  0  0  0  0  0  0  0
    0.7167   -0.7542    0.0000 C   0  0  0  0  0  0  0  0  0  0  0  0
   -4.5208    0.7333    0.0000 C   0  0  0  0  0  0  0  0  0  0  0  0
   -3.2125    1.9958    0.0000 C   0  0  0  0  0  0  0  0  0  0  0  0
    1.7500   -0.5000    0.0000 C   0  0  0  0  0  0  0  0  0  0  0  0
    3.3500    1.7833    0.0000 C   0  0  0  0  0  0  0  0  0  0  0  0
    3.0500    0.7625    0.0000 C   0  0  0  0  0  0  0  0  0  0  0  0
    2.0292    0.5000    0.0000 C   0  0  0  0  0  0  0  0  0  0  0  0
    4.3542    2.0458    0.0000 C   0  0  0  0  0  0  0  0  0  0  0  0
   -5.2708    1.4833    0.0000 C   0  0  0  0  0  0  0  0  0  0  0  0
   -3.9625    2.7333    0.0000 C   0  0  0  0  0  0  0  0  0  0  0  0
   -4.9708    2.4833    0.0000 C   0  0  0  0  0  0  0  0  0  0  0  0
  2  1  1  0  0  0  0
  3  8  1  0  0  0  0
  4  1  2  0  0  0  0
  5  2  2  0  0  0  0
  6  2  1  0  0  0  0
  7  5  1  0  0  0  0
  8  6  2  0  0  0  0
  9  1  1  0  0  0  0
 10  3  1  0  0  0  0
 11  9  1  0  0  0  0
 12 10  1  0  0  0  0
 13 10  2  0  0  0  0
 14 11  1  0  0  0  0
 15 16  1  0  0  0  0
 16 17  1  0  0  0  0
 17 14  1  0  0  0  0
 18 15  1  0  0  0  0
 19 12  2  0  0  0  0
 20 13  1  0  0  0  0
 21 20  2  0  0  0  0
  3  7  2  0  0  0  0
 19 21  1  0  0  0  0
M  END
>  <ID> (5226545)
5226545

>  <Supplier> (5226545)
ChemBridge

>  <clogP> (5226545)
5.390000000000000e+000

>  <RB> (5226545)
5

>  <tPSA> (5226545)
2.910000000000000e+001

>  <Hacc> (5226545)
1

>  <Hdon> (5226545)
1

>  <LogSw> (5226545)
-5.856000000000000e+000

>  <Group> (5226545)
1

$$$$
5226544
  -ISIS-  03310818212D

 23 25  0  0  0  0  0  0  0  0999 V2000
   -1.8833   -2.5375    0.0000 C   0  0  0  0  0  0  0  0  0  0  0  0
   -1.4125   -1.7667    0.0000 N   0  0  0  0  0  0  0  0  0  0  0  0
   -2.7833   -2.5375    0.0000 C   0  0  0  0  0  0  0  0  0  0  0  0
   -1.8625    0.6000    0.0000 C   0  0  0  0  0  0  0  0  0  0  0  0
   -1.8708   -0.9667    0.0000 C   0  0  0  0  0  0  0  0  0  0  0  0
   -1.4000   -0.2000    0.0000 C   0  0  0  0  0  0  0  0  0  0  0  0
   -4.5958   -2.5042    0.0000 C   0  0  0  0  0  0  0  0  0  0  0  0
   -1.4208   -3.3500    0.0000 O   0  0  0  0  0  0  0  0  0  0  0  0
   -2.7625    0.6000    0.0000 C   0  0  0  0  0  0  0  0  0  0  0  0
   -3.2333   -1.7292    0.0000 C   0  0  0  0  0  0  0  0  0  0  0  0
   -3.2500   -3.3042    0.0000 C   0  0  0  0  0  0  0  0  0  0  0  0
   -4.1333   -1.7292    0.0000 C   0  0  0  0  0  0  0  0  0  0  0  0
   -4.1458   -3.3042    0.0000 C   0  0  0  0  0  0  0  0  0  0  0  0
   -5.4958   -2.5042    0.0000 C   0  0  0  0  0  0  0  0  0  0  0  0
   -3.2208   -0.1667    0.0000 C   0  0  0  0  0  0  0  0  0  0  0  0
   -2.7708   -0.9667    0.0000 C   0  0  0  0  0  0  0  0  0  0  0  0
   -1.3833    1.4000    0.0000 C   0  0  0  0  0  0  0  0  0  0  0  0
   -3.2125    1.4125    0.0000 C   0  0  0  0  0  0  0  0  0  0  0  0
   -5.9708   -3.2792    0.0000 C   0  0  0  0  0  0  0  0  0  0  0  0
   -5.9583   -1.7000    0.0000 C   0  0  0  0  0  0  0  0  0  0  0  0
   -6.8542   -3.2792    0.0000 C   0  0  0  0  0  0  0  0  0  0  0  0
   -6.8417   -1.7000    0.0000 C   0  0  0  0  0  0  0  0  0  0  0  0
   -7.3042   -2.4667    0.0000 C   0  0  0  0  0  0  0  0  0  0  0  0
  2  1  1  0  0  0  0
  3  1  1  0  0  0  0
  4  6  1  0  0  0  0
  5  2  1  0  0  0  0
  6  5  2  0  0  0  0
  7 13  1  0  0  0  0
  8  1  2  0  0  0  0
  9 15  1  0  0  0  0
 10  3  2  0  0  0  0
 11  3  1  0  0  0  0
 12 10  1  0  0  0  0
 13 11  2  0  0  0  0
 14  7  1  0  0  0  0
 15 16  2  0  0  0  0
 16  5  1  0  0  0  0
 17  4  1  0  0  0  0
 18  9  1  0  0  0  0
 19 14  1  0  0  0  0
 20 14  2  0  0  0  0
 21 19  2  0  0  0  0
 22 20  1  0  0  0  0
 23 22  2  0  0  0  0
  7 12  2  0  0  0  0
  4  9  2  0  0  0  0
 21 23  1  0  0  0  0
M  END
>  <ID> (5226544)
5226544

>  <Supplier> (5226544)
ChemBridge

>  <clogP> (5226544)
5.480000000000000e+000

>  <RB> (5226544)
3

>  <tPSA> (5226544)
2.910000000000000e+001

>  <Hacc> (5226544)
1

>  <Hdon> (5226544)
1

>  <LogSw> (5226544)
-6.078000000000000e+000

>  <Group> (5226544)
2

>  <Core> (5226544)
511

$$$$
5226546
  -ISIS-  03310818212D

 21 23  0  0  0  0  0  0  0  0999 V2000
   -2.1333    1.0625    0.0000 C   0  0  0  0  0  0  0  0  0  0  0  0
   -3.0333    0.1458    0.0000 N   0  0  3  0  0  0  0  0  0  0  0  0
   -0.9000    0.7333    0.0000 C   0  0  0  0  0  0  0  0  0  0  0  0
   -2.4833    2.2500    0.0000 O   0  0  0  0  0  0  0  0  0  0  0  0
    1.5667    0.0833    0.0000 C   0  0  0  0  0  0  0  0  0  0  0  0
   -0.5625   -0.4875    0.0000 C   0  0  0  0  0  0  0  0  0  0  0  0
    0.0000    1.6333    0.0000 C   0  0  0  0  0  0  0  0  0  0  0  0
    0.6500   -0.8375    0.0000 C   0  0  0  0  0  0  0  0  0  0  0  0
    1.2292    1.3125    0.0000 C   0  0  0  0  0  0  0  0  0  0  0  0
    2.7792   -0.2375    0.0000 C   0  0  0  0  0  0  0  0  0  0  0  0
   -4.2458    0.4333    0.0000 C   0  0  0  0  0  0  0  0  0  0  0  0
   -2.4833   -1.0292    0.0000 C   0  0  0  0  0  0  0  0  0  0  0  0
    3.6667    0.6625    0.0000 C   0  0  0  0  0  0  0  0  0  0  0  0
    3.1042   -1.4875    0.0000 C   0  0  0  0  0  0  0  0  0  0  0  0
   -5.2458   -0.3375    0.0000 C   0  0  0  0  0  0  0  0  0  0  0  0
   -3.0708   -2.1542    0.0000 C   0  0  0  0  0  0  0  0  0  0  0  0
    4.8875    0.3333    0.0000 C   0  0  0  0  0  0  0  0  0  0  0  0
    4.3375   -1.8167    0.0000 C   0  0  0  0  0  0  0  0  0  0  0  0
   -5.2708   -1.6167    0.0000 C   0  0  0  0  0  0  0  0  0  0  0  0
   -4.3000   -2.4042    0.0000 C   0  0  0  0  0  0  0  0  0  0  0  0
    5.2375   -0.9292    0.0000 C   0  0  0  0  0  0  0  0  0  0  0  0
  2  1  1  0  0  0  0
  3  1  1  0  0  0  0
  4  1  2  0  0  0  0
  5  9  1  0  0  0  0
  6  3  2  0  0  0  0
  7  3  1  0  0  0  0
  8  6  1  0  0  0  0
  9  7  2  0  0  0  0
 10  5  1  0  0  0  0
 11  2  1  0  0  0  0
 12  2  1  0  0  0  0
 13 10  1  0  0  0  0
 14 10  2  0  0  0  0
 15 11  1  0  0  0  0
 16 12  1  0  0  0  0
 17 13  2  0  0  0  0
 18 14  1  0  0  0  0
 19 15  1  0  0  0  0
 20 16  1  0  0  0  0
 21 18  2  0  0  0  0
  8  5  2  0  0  0  0
 19 20  1  0  0  0  0
 21 17  1  0  0  0  0
M  END
>  <ID> (5226546)
5226546

>  <Supplier> (5226546)
ChemBridge

>  <clogP> (5226546)
4.240000000000000e+000

>  <RB> (5226546)
2

>  <tPSA> (5226546)
2.031000000000000e+001

>  <Hacc> (5226546)
1

>  <Hdon> (5226546)
0

>  <LogSw> (5226546)
-4.859000000000000e+000

>  <Group> (5226546)
3

$$$$
6950197
  -ISIS-  03310818242D

 18 20  0  0  0  0  0  0  0  0999 V2000
    4.4667   -3.3000    0.0000 C   0  0  3  0  0  0  0  0  0  0  0  0
    4.4667    1.1333    0.0000 C   0  0  0  0  0  0  0  0  0  0  0  0
    8.3042   -5.4792    0.0000 N   0  0  0  0  0  0  0  0  0  0  0  0
   12.1500    1.1333    0.0000 N   0  0  0  0  0  0  0  0  0  0  0  0
    8.3042    3.3000    0.0000 C   0  0  0  0  0  0  0  0  0  0  0  0
   12.1500   -3.3000    0.0000 C   0  0  0  0  0  0  0  0  0  0  0  0
    0.6292   -5.4792    0.0000 O   0  0  0  0  0  0  0  0  0  0  0  0
    0.6292    3.3000    0.0000 C   0  0  0  0  0  0  0  0  0  0  0  0
   -3.2125   -3.3000    0.0000 C   0  0  0  0  0  0  0  0  0  0  0  0
   -3.2125    1.1333    0.0000 C   0  0  0  0  0  0  0  0  0  0  0  0
   -6.9792   -5.4792    0.0000 C   0  0  0  0  0  0  0  0  0  0  0  0
    8.3042    7.7375    0.0000 O   0  0  0  0  0  0  0  0  0  0  0  0
   16.0000   -5.5667    0.0000 O   0  0  0  0  0  0  0  0  0  0  0  0
    4.4667   -7.7375    0.0000 O   0  0  0  0  0  0  0  0  0  0  0  0
   -6.9792    3.3000    0.0000 C   0  0  0  0  0  0  0  0  0  0  0  0
  -10.8292   -3.3000    0.0000 C   0  0  0  0  0  0  0  0  0  0  0  0
  -10.8292    1.1333    0.0000 C   0  0  0  0  0  0  0  0  0  0  0  0
  -14.7375   -5.5667    0.0000 O   0  0  0  0  0  0  0  0  0  0  0  0
  2  1  1  0  0  0  0
  3  1  1  0  0  0  0
  4  6  1  0  0  0  0
  5  2  1  0  0  0  0
  6  3  1  0  0  0  0
  7  1  1  0  0  0  0
  8  2  2  0  0  0  0
  9  7  1  0  0  0  0
 10  9  2  0  0  0  0
 11  9  1  0  0  0  0
 12  5  2  0  0  0  0
 13  6  2  0  0  0  0
 14  1  1  0  0  0  0
 15 10  1  0  0  0  0
 16 11  2  0  0  0  0
 17 16  1  0  0  0  0
 18 16  1  0  0  0  0
  5  4  1  0  0  0  0
 10  8  1  0  0  0  0
 15 17  2  0  0  0  0
M  END
>  <ID> (6950197)
6950197

>  <Supplier> (6950197)
ChemBridge

>  <clogP> (6950197)
-7.000000000000001e-002

>  <RB> (6950197)
0

>  <tPSA> (6950197)
1.078900000000000e+002

>  <Hacc> (6950197)
5

>  <Hdon> (6950197)
4

>  <LogSw> (6950197)
-1.681000000000000e+000

>  <Group> (6950197)
3

$$$$
9153517
  -ISIS-  03310818292D

 26 29  0  0  0  0  0  0  0  0999 V2000
    4.6417    2.5458    0.0000 C   0  0  0  0  0  0  0  0  0  0  0  0
    5.3292    2.2375    0.0000 N   0  0  3  0  0  0  0  0  0  0  0  0
    5.8292    2.7958    0.0000 C   0  0  0  0  0  0  0  0  0  0  0  0
    4.7250    3.2958    0.0000 C   0  0  3  0  0  0  0  0  0  0  0  0
    5.4542    3.4458    0.0000 C   0  0  0  0  0  0  0  0  0  0  0  0
    2.1792    3.8333    0.0000 C   0  0  0  0  0  0  0  0  0  0  0  0
    2.8917    4.0542    0.0000 N   0  0  0  0  0  0  0  0  0  0  0  0
    3.4542    3.5583    0.0000 C   0  0  0  0  0  0  0  0  0  0  0  0
    3.2917    2.8333    0.0000 N   0  0  0  0  0  0  0  0  0  0  0  0
    2.0250    3.0958    0.0000 C   0  0  0  0  0  0  0  0  0  0  0  0
    2.5792    2.5958    0.0000 C   0  0  0  0  0  0  0  0  0  0  0  0
    4.1667    3.7958    0.0000 C   0  0  0  0  0  0  0  0  0  0  0  0
    6.5792    2.7958    0.0000 C   0  0  0  0  0  0  0  0  0  0  0  0
    3.9917    2.1708    0.0000 O   0  0  0  0  0  0  0  0  0  0  0  0
    5.8292    4.0917    0.0000 C   0  0  0  0  0  0  0  0  0  0  0  0
    1.6250    4.3292    0.0000 O   0  0  0  0  0  0  0  0  0  0  0  0
    5.4875    1.5083    0.0000 C   0  0  3  0  0  0  0  0  0  0  0  0
    6.5792    4.0917    0.0000 C   0  0  0  0  0  0  0  0  0  0  0  0
    6.9542    3.4458    0.0000 C   0  0  0  0  0  0  0  0  0  0  0  0
    6.9542    4.7417    0.0000 Br  0  0  0  0  0  0  0  0  0  0  0  0
    1.3125    2.8625    0.0000 C   0  0  0  0  0  0  0  0  0  0  0  0
    2.4292    1.8625    0.0000 C   0  0  0  0  0  0  0  0  0  0  0  0
    6.2000    1.2750    0.0000 C   0  0  0  0  0  0  0  0  0  0  0  0
    4.9292    1.0083    0.0000 C   0  0  0  0  0  0  0  0  0  0  0  0
    1.1542    2.1333    0.0000 C   0  0  0  0  0  0  0  0  0  0  0  0
    1.7125    1.6333    0.0000 C   0  0  0  0  0  0  0  0  0  0  0  0
  2  1  1  0  0  0  0
  3  2  1  0  0  0  0
  4  1  1  0  0  0  0
  5  4  1  0  0  0  0
  6  7  1  0  0  0  0
  7  8  1  0  0  0  0
  8 12  1  0  0  0  0
  9  8  2  0  0  0  0
 10 11  1  0  0  0  0
 11  9  1  0  0  0  0
 12  4  1  0  0  0  0
 13  3  1  0  0  0  0
 14  1  2  0  0  0  0
 15  5  1  0  0  0  0
 16  6  2  0  0  0  0
 17  2  1  0  0  0  0
 18 15  2  0  0  0  0
 19 13  2  0  0  0  0
 20 18  1  0  0  0  0
 21 10  2  0  0  0  0
 22 11  2  0  0  0  0
 23 17  1  0  0  0  0
 24 17  1  0  0  0  0
 25 26  2  0  0  0  0
 26 22  1  0  0  0  0
  5  3  2  0  0  0  0
 19 18  1  0  0  0  0
  6 10  1  0  0  0  0
 25 21  1  0  0  0  0
M  END
>  <ID> (9153517)
9153517

>  <Supplier> (9153517)
ChemBridge

>  <clogP> (9153517)
3.094000000000000e+000

>  <RB> (9153517)
2

>  <tPSA> (9153517)
6.606000000000000e+001

>  <Hacc> (9153517)
3

>  <Hdon> (9153517)
1

>  <LogSw> (9153517)
-4.848000000000000e+000

>  <Group> (9153517)
2

>  <Core> (9153517)
061

$$$$
9153516
  -ISIS-  03310818292D

 24 26  0  0  0  0  0  0  0  0999 V2000
    1.1667    3.7208    0.0000 C   0  0  0  0  0  0  0  0  0  0  0  0
    2.3167    3.3458    0.0000 C   0  0  0  0  0  0  0  0  0  0  0  0
    1.6042    3.1208    0.0000 N   0  0  0  0  0  0  0  0  0  0  0  0
    2.3167    4.0917    0.0000 C   0  0  0  0  0  0  0  0  0  0  0  0
    1.6042    4.3250    0.0000 N   0  0  3  0  0  0  0  0  0  0  0  0
    2.9667    2.9708    0.0000 N   0  0  3  0  0  0  0  0  0  0  0  0
    0.4167    3.7208    0.0000 N   0  0  3  0  0  0  0  0  0  0  0  0
    3.6167    3.3458    0.0000 C   0  0  0  0  0  0  0  0  0  0  0  0
    3.6167    4.0917    0.0000 N   0  0  0  0  0  0  0  0  0  0  0  0
    2.9667    4.4667    0.0000 C   0  0  0  0  0  0  0  0  0  0  0  0
   -0.0250    4.3250    0.0000 N   0  0  0  0  0  0  0  0  0  0  0  0
   -0.0250    3.1208    0.0000 C   0  0  0  0  0  0  0  0  0  0  0  0
   -0.7375    3.3458    0.0000 C   0  0  0  0  0  0  0  0  0  0  0  0
   -0.7375    4.0917    0.0000 C   0  0  0  0  0  0  0  0  0  0  0  0
    4.2667    2.9708    0.0000 O   0  0  0  0  0  0  0  0  0  0  0  0
    2.9667    5.2167    0.0000 O   0  0  0  0  0  0  0  0  0  0  0  0
    1.3750    5.0292    0.0000 C   0  0  0  0  0  0  0  0  0  0  0  0
    2.9667    2.2208    0.0000 C   0  0  0  0  0  0  0  0  0  0  0  0
    0.2042    2.4000    0.0000 C   0  0  0  0  0  0  0  0  0  0  0  0
   -1.3458    4.5292    0.0000 C   0  0  0  0  0  0  0  0  0  0  0  0
    1.8750    5.5917    0.0000 C   0  0  0  0  0  0  0  0  0  0  0  0
   -0.2958    1.8458    0.0000 C   0  0  0  0  0  0  0  0  0  0  0  0
   -2.0333    4.2292    0.0000 C   0  0  0  0  0  0  0  0  0  0  0  0
    1.6417    6.3042    0.0000 C   0  0  0  0  0  0  0  0  0  0  0  0
  2  3  1  0  0  0  0
  3  1  2  0  0  0  0
  4  5  1  0  0  0  0
  5  1  1  0  0  0  0
  6  2  1  0  0  0  0
  7  1  1  0  0  0  0
  8  6  1  0  0  0  0
  9 10  1  0  0  0  0
 10  4  1  0  0  0  0
 11  7  1  0  0  0  0
 12  7  1  0  0  0  0
 13 12  2  0  0  0  0
 14 11  2  0  0  0  0
 15  8  2  0  0  0  0
 16 10  2  0  0  0  0
 17  5  1  0  0  0  0
 18  6  1  0  0  0  0
 19 12  1  0  0  0  0
 20 14  1  0  0  0  0
 21 17  1  0  0  0  0
 22 19  1  0  0  0  0
 23 20  1  0  0  0  0
 24 21  1  0  0  0  0
  2  4  2  0  0  0  0
 14 13  1  0  0  0  0
  8  9  1  0  0  0  0
M  END
>  <ID> (9153516)
9153516

>  <Supplier> (9153516)
ChemBridge

>  <clogP> (9153516)
2.767000000000000e+000

>  <RB> (9153516)
1

>  <tPSA> (9153516)
9.050000000000000e+001

>  <Hacc> (9153516)
4

>  <Hdon> (9153516)
1

>  <LogSw> (9153516)
-3.972000000000000e+000

>  <Group> (9153516)
2

>  <Core> (9153516)
250

$$$$
9057612
  -ISIS-  03310818282D

 27 29  0  0  0  0  0  0  0  0999 V2000
    3.1417    3.1875    0.0000 C   0  0  0  0  0  0  0  0  0  0  0  0
    2.8417    3.8750    0.0000 C   0  0  0  0  0  0  0  0  0  0  0  0
    2.0917    3.7958    0.0000 N   0  0  3  0  0  0  0  0  0  0  0  0
    2.5875    2.6875    0.0000 C   0  0  0  0  0  0  0  0  0  0  0  0
    1.9417    3.0625    0.0000 C   0  0  0  0  0  0  0  0  0  0  0  0
    5.6167    3.9958    0.0000 C   0  0  0  0  0  0  0  0  0  0  0  0
    6.3500    3.8375    0.0000 C   0  0  0  0  0  0  0  0  0  0  0  0
    5.3875    4.7000    0.0000 N   0  0  0  0  0  0  0  0  0  0  0  0
    6.8542    4.3875    0.0000 C   0  0  0  0  0  0  0  0  0  0  0  0
    3.8792    3.0333    0.0000 C   0  0  0  0  0  0  0  0  0  0  0  0
    6.5792    3.1208    0.0000 C   0  0  0  0  0  0  0  0  0  0  0  0
    6.8167    2.4083    0.0000 N   0  0  0  0  0  0  0  0  0  0  0  0
    5.1167    3.4333    0.0000 S   0  0  0  0  0  0  0  0  0  0  0  0
    5.8875    5.2542    0.0000 C   0  0  0  0  0  0  0  0  0  0  0  0
    6.6167    5.1042    0.0000 C   0  0  0  0  0  0  0  0  0  0  0  0
    4.3792    3.5958    0.0000 C   0  0  0  0  0  0  0  0  0  0  0  0
    4.1125    2.3208    0.0000 O   0  0  0  0  0  0  0  0  0  0  0  0
    1.5917    4.3417    0.0000 C   0  0  0  0  0  0  0  0  0  0  0  0
    3.2167    4.5167    0.0000 C   0  0  0  0  0  0  0  0  0  0  0  0
    2.5875    1.9375    0.0000 C   0  0  0  0  0  0  0  0  0  0  0  0
    1.2917    2.6875    0.0000 C   0  0  0  0  0  0  0  0  0  0  0  0
    7.5875    4.2292    0.0000 C   0  0  0  0  0  0  0  0  0  0  0  0
    8.0875    4.7917    0.0000 O   0  0  0  0  0  0  0  0  0  0  0  0
    5.6542    5.9667    0.0000 C   0  0  0  0  0  0  0  0  0  0  0  0
    8.8167    4.6292    0.0000 C   0  0  0  0  0  0  0  0  0  0  0  0
    1.9417    1.5625    0.0000 C   0  0  0  0  0  0  0  0  0  0  0  0
    1.2917    1.9375    0.0000 C   0  0  0  0  0  0  0  0  0  0  0  0
  2  1  2  0  0  0  0
  3  2  1  0  0  0  0
  4  1  1  0  0  0  0
  5  4  2  0  0  0  0
  6 13  1  0  0  0  0
  7  6  1  0  0  0  0
  8  6  2  0  0  0  0
  9  7  2  0  0  0  0
 10  1  1  0  0  0  0
 11  7  1  0  0  0  0
 12 11  3  0  0  0  0
 13 16  1  0  0  0  0
 14  8  1  0  0  0  0
 15 14  2  0  0  0  0
 16 10  1  0  0  0  0
 17 10  2  0  0  0  0
 18  3  1  0  0  0  0
 19  2  1  0  0  0  0
 20  4  1  0  0  0  0
 21  5  1  0  0  0  0
 22  9  1  0  0  0  0
 23 22  1  0  0  0  0
 24 14  1  0  0  0  0
 25 23  1  0  0  0  0
 26 20  2  0  0  0  0
 27 26  1  0  0  0  0
  5  3  1  0  0  0  0
 27 21  2  0  0  0  0
  9 15  1  0  0  0  0
M  END
>  <ID> (9057612)
9057612

>  <Supplier> (9057612)
ChemBridge

>  <clogP> (9057612)
3.939000000000000e+000

>  <RB> (9057612)
5

>  <tPSA> (9057612)
6.791000000000000e+001

>  <Hacc> (9057612)
4

>  <Hdon> (9057612)
0

>  <LogSw> (9057612)
-5.420000000000000e+000

>  <Group> (9057612)
2

>  <Core> (9057612)
042

$$$$
9057611
  -ISIS-  03310818282D

 27 29  0  0  0  0  0  0  0  0999 V2000
    6.6792    1.9458    0.0000 N   0  0  0  0  0  0  0  0  0  0  0  0
    7.1167    2.5500    0.0000 C   0  0  0  0  0  0  0  0  0  0  0  0
    6.6792    3.1583    0.0000 N   0  0  0  0  0  0  0  0  0  0  0  0
    5.9625    2.1750    0.0000 C   0  0  0  0  0  0  0  0  0  0  0  0
    5.9625    2.9250    0.0000 O   0  0  0  0  0  0  0  0  0  0  0  0
    7.8667    2.5500    0.0000 C   0  0  0  0  0  0  0  0  0  0  0  0
    8.2417    1.9000    0.0000 C   0  0  0  0  0  0  0  0  0  0  0  0
    8.9917    1.9000    0.0000 C   0  0  0  0  0  0  0  0  0  0  0  0
    4.0667    1.6000    0.0000 C   0  0  0  0  0  0  0  0  0  0  0  0
    3.3792    1.9083    0.0000 N   0  0  0  0  0  0  0  0  0  0  0  0
    9.3667    2.5500    0.0000 C   0  0  0  0  0  0  0  0  0  0  0  0
    8.2417    3.2083    0.0000 C   0  0  0  0  0  0  0  0  0  0  0  0
    4.1417    0.8583    0.0000 O   0  0  0  0  0  0  0  0  0  0  0  0
    8.9917    3.2083    0.0000 C   0  0  0  0  0  0  0  0  0  0  0  0
    2.7750    1.4625    0.0000 C   0  0  0  0  0  0  0  0  0  0  0  0
    5.3542    1.7333    0.0000 C   0  0  0  0  0  0  0  0  0  0  0  0
    4.6667    2.0458    0.0000 C   0  0  0  0  0  0  0  0  0  0  0  0
    1.5542    0.5833    0.0000 C   0  0  0  0  0  0  0  0  0  0  0  0
    9.3667    1.2500    0.0000 O   0  0  0  0  0  0  0  0  0  0  0  0
    0.9542    0.1458    0.0000 Cl  0  0  0  0  0  0  0  0  0  0  0  0
    2.8500    0.7208    0.0000 C   0  0  0  0  0  0  0  0  0  0  0  0
    2.0875    1.7708    0.0000 C   0  0  0  0  0  0  0  0  0  0  0  0
   10.1167    2.5500    0.0000 O   0  0  0  0  0  0  0  0  0  0  0  0
    2.2417    0.2750    0.0000 C   0  0  0  0  0  0  0  0  0  0  0  0
    1.4792    1.3333    0.0000 C   0  0  0  0  0  0  0  0  0  0  0  0
    8.9917    0.6083    0.0000 C   0  0  0  0  0  0  0  0  0  0  0  0
   10.4917    3.2083    0.0000 C   0  0  0  0  0  0  0  0  0  0  0  0
  2  1  1  0  0  0  0
  3  2  2  0  0  0  0
  4  1  2  0  0  0  0
  5  4  1  0  0  0  0
  6  2  1  0  0  0  0
  7  6  2  0  0  0  0
  8  7  1  0  0  0  0
  9 17  1  0  0  0  0
 10  9  1  0  0  0  0
 11 14  1  0  0  0  0
 12  6  1  0  0  0  0
 13  9  2  0  0  0  0
 14 12  2  0  0  0  0
 15 10  1  0  0  0  0
 16  4  1  0  0  0  0
 17 16  1  0  0  0  0
 18 25  1  0  0  0  0
 19  8  1  0  0  0  0
 20 18  1  0  0  0  0
 21 15  2  0  0  0  0
 22 15  1  0  0  0  0
 23 11  1  0  0  0  0
 24 21  1  0  0  0  0
 25 22  2  0  0  0  0
 26 19  1  0  0  0  0
 27 23  1  0  0  0  0
  3  5  1  0  0  0  0
  8 11  2  0  0  0  0
 18 24  2  0  0  0  0
M  END
>  <ID> (9057611)
9057611

>  <Supplier> (9057611)
ChemBridge

>  <clogP> (9057611)
3.198000000000000e+000

>  <RB> (9057611)
5

>  <tPSA> (9057611)
8.647999999999999e+001

>  <Hacc> (9057611)
6

>  <Hdon> (9057611)
1

>  <LogSw> (9057611)
-4.659000000000000e+000

>  <Group> (9057611)
2

>  <Core> (9057611)
206

$$$$
7866131
  -ISIS-  03310818272D

 24 27  0  0  0  0  0  0  0  0999 V2000
    6.8917    2.1458    0.0000 C   0  0  0  0  0  0  0  0  0  0  0  0
    7.4500    2.6458    0.0000 C   0  0  0  0  0  0  0  0  0  0  0  0
    7.1417    3.3333    0.0000 C   0  0  0  0  0  0  0  0  0  0  0  0
    6.2417    2.5208    0.0000 C   0  0  0  0  0  0  0  0  0  0  0  0
    6.4000    3.2500    0.0000 S   0  0  0  0  0  0  0  0  0  0  0  0
    8.1917    2.5625    0.0000 C   0  0  0  0  0  0  0  0  0  0  0  0
    7.5875    3.9333    0.0000 N   0  0  0  0  0  0  0  0  0  0  0  0
    8.6375    3.1708    0.0000 N   0  0  0  0  0  0  0  0  0  0  0  0
    6.8917    1.3875    0.0000 C   0  0  0  0  0  0  0  0  0  0  0  0
    5.5917    1.3875    0.0000 O   0  0  0  0  0  0  0  0  0  0  0  0
    8.3292    3.8583    0.0000 C   0  0  0  0  0  0  0  0  0  0  0  0
    6.2417    1.0125    0.0000 C   0  0  3  0  0  0  0  0  0  0  0  0
    5.5917    2.1458    0.0000 C   0  0  0  0  0  0  0  0  0  0  0  0
    8.5000    1.8833    0.0000 N   0  0  0  0  0  0  0  0  0  0  0  0
    9.2417    1.8000    0.0000 C   0  0  0  0  0  0  0  0  0  0  0  0
   10.2917    1.0375    0.0000 C   0  0  0  0  0  0  0  0  0  0  0  0
    5.7625    0.4458    0.0000 C   0  0  0  0  0  0  0  0  0  0  0  0
    6.7250    0.4458    0.0000 C   0  0  0  0  0  0  0  0  0  0  0  0
    9.5500    1.1125    0.0000 C   0  0  0  0  0  0  0  0  0  0  0  0
   10.6042    0.3500    0.0000 C   0  0  0  0  0  0  0  0  0  0  0  0
   10.7375    1.6458    0.0000 C   0  0  0  0  0  0  0  0  0  0  0  0
   11.4792    1.5625    0.0000 C   0  0  0  0  0  0  0  0  0  0  0  0
   11.3500    0.2708    0.0000 C   0  0  0  0  0  0  0  0  0  0  0  0
   11.7875    0.8833    0.0000 C   0  0  0  0  0  0  0  0  0  0  0  0
  2  1  1  0  0  0  0
  3  2  2  0  0  0  0
  4  1  2  0  0  0  0
  5  4  1  0  0  0  0
  6  2  1  0  0  0  0
  7  3  1  0  0  0  0
  8  6  2  0  0  0  0
  9  1  1  0  0  0  0
 10 12  1  0  0  0  0
 11  8  1  0  0  0  0
 12  9  1  0  0  0  0
 13  4  1  0  0  0  0
 14  6  1  0  0  0  0
 15 14  1  0  0  0  0
 16 19  1  0  0  0  0
 17 12  1  0  0  0  0
 18 12  1  0  0  0  0
 19 15  1  0  0  0  0
 20 16  1  0  0  0  0
 21 16  2  0  0  0  0
 22 21  1  0  0  0  0
 23 20  2  0  0  0  0
 24 22  2  0  0  0  0
 13 10  1  0  0  0  0
  3  5  1  0  0  0  0
 11  7  2  0  0  0  0
 24 23  1  0  0  0  0
M  END
>  <ID> (7866131)
7866131

>  <Supplier> (7866131)
ChemBridge

>  <clogP> (7866131)
4.324999999999994e+000

>  <RB> (7866131)
4

>  <tPSA> (7866131)
4.704000000000000e+001

>  <Hacc> (7866131)
3

>  <Hdon> (7866131)
1

>  <LogSw> (7866131)
-5.369000000000000e+000

>  <Group> (7866131)
3

>  <Core> (7866131)
330

$$$$
9057615
  -ISIS-  03310818282D

 28 31  0  0  0  0  0  0  0  0999 V2000
    4.7667    1.2125    0.0000 C   0  0  0  0  0  0  0  0  0  0  0  0
    5.1417    1.8583    0.0000 C   0  0  0  0  0  0  0  0  0  0  0  0
    5.8792    1.7083    0.0000 C   0  0  0  0  0  0  0  0  0  0  0  0
    5.2750    0.6583    0.0000 S   0  0  0  0  0  0  0  0  0  0  0  0
    5.9542    0.9583    0.0000 C   0  0  0  0  0  0  0  0  0  0  0  0
    4.0167    1.2125    0.0000 C   0  0  0  0  0  0  0  0  0  0  0  0
    3.6417    1.8583    0.0000 N   0  0  3  0  0  0  0  0  0  0  0  0
    4.7667    2.5083    0.0000 N   0  0  0  0  0  0  0  0  0  0  0  0
    6.6417    0.6583    0.0000 N   0  0  0  0  0  0  0  0  0  0  0  0
    4.0167    2.5083    0.0000 C   0  0  0  0  0  0  0  0  0  0  0  0
    7.2500    1.0958    0.0000 C   0  0  0  0  0  0  0  0  0  0  0  0
    6.4875    2.1458    0.0000 C   0  0  0  0  0  0  0  0  0  0  0  0
    7.1667    1.8458    0.0000 C   0  0  0  0  0  0  0  0  0  0  0  0
    2.5167    2.5083    0.0000 C   0  0  0  0  0  0  0  0  0  0  0  0
    2.8917    1.8583    0.0000 C   0  0  0  0  0  0  0  0  0  0  0  0
    7.9375    0.7875    0.0000 C   0  0  0  0  0  0  0  0  0  0  0  0
    8.4625    1.9750    0.0000 O   0  0  0  0  0  0  0  0  0  0  0  0
    8.5417    1.2333    0.0000 C   0  0  3  0  0  0  0  0  0  0  0  0
    3.6417    0.5625    0.0000 O   0  0  0  0  0  0  0  0  0  0  0  0
    1.7667    2.5083    0.0000 N   0  0  3  0  0  0  0  0  0  0  0  0
    7.7792    2.2833    0.0000 C   0  0  0  0  0  0  0  0  0  0  0  0
    2.8917    3.1583    0.0000 O   0  0  0  0  0  0  0  0  0  0  0  0
    1.3917    3.1583    0.0000 C   0  0  0  0  0  0  0  0  0  0  0  0
    1.3917    1.8583    0.0000 C   0  0  0  0  0  0  0  0  0  0  0  0
    8.8667    0.5583    0.0000 C   0  0  0  0  0  0  0  0  0  0  0  0
    9.2625    1.4375    0.0000 C   0  0  0  0  0  0  0  0  0  0  0  0
    0.6417    3.1583    0.0000 C   0  0  0  0  0  0  0  0  0  0  0  0
    0.6417    1.8583    0.0000 C   0  0  0  0  0  0  0  0  0  0  0  0
  2  1  2  0  0  0  0
  3  2  1  0  0  0  0
  4  1  1  0  0  0  0
  5  4  1  0  0  0  0
  6  1  1  0  0  0  0
  7  6  1  0  0  0  0
  8  2  1  0  0  0  0
  9  5  2  0  0  0  0
 10  7  1  0  0  0  0
 11  9  1  0  0  0  0
 12  3  2  0  0  0  0
 13 12  1  0  0  0  0
 14 15  1  0  0  0  0
 15  7  1  0  0  0  0
 16 11  1  0  0  0  0
 17 21  1  0  0  0  0
 18 16  1  0  0  0  0
 19  6  2  0  0  0  0
 20 14  1  0  0  0  0
 21 13  1  0  0  0  0
 22 14  2  0  0  0  0
 23 20  1  0  0  0  0
 24 20  1  0  0  0  0
 25 18  1  0  0  0  0
 26 18  1  0  0  0  0
 27 23  1  0  0  0  0
 28 24  1  0  0  0  0
  5  3  1  0  0  0  0
 10  8  2  0  0  0  0
 11 13  2  0  0  0  0
 17 18  1  0  0  0  0
M  END
>  <ID> (9057615)
9057615

>  <Supplier> (9057615)
ChemBridge

>  <clogP> (9057615)
1.674000000000000e+000

>  <RB> (9057615)
2

>  <tPSA> (9057615)
7.731999999999999e+001

>  <Hacc> (9057615)
5

>  <Hdon> (9057615)
0

>  <LogSw> (9057615)
-3.441000000000000e+000

>  <Group> (9057615)
1

$$$$
9026218
  -ISIS-  03310818282D

 23 26  0  0  0  0  0  0  0  0999 V2000
    5.6125    1.7958    0.0000 N   0  0  3  0  0  0  0  0  0  0  0  0
    5.2375    1.1458    0.0000 C   0  0  0  0  0  0  0  0  0  0  0  0
    5.2375    2.4458    0.0000 C   0  0  0  0  0  0  0  0  0  0  0  0
    5.7417    0.5875    0.0000 N   0  0  0  0  0  0  0  0  0  0  0  0
    4.4875    2.4458    0.0000 C   0  0  0  0  0  0  0  0  0  0  0  0
    4.4875    1.1458    0.0000 N   0  0  0  0  0  0  0  0  0  0  0  0
    6.3417    1.6375    0.0000 C   0  0  0  0  0  0  0  0  0  0  0  0
    6.4250    0.8958    0.0000 C   0  0  0  0  0  0  0  0  0  0  0  0
    4.1125    1.7958    0.0000 C   0  0  0  0  0  0  0  0  0  0  0  0
    5.6125    3.0958    0.0000 O   0  0  0  0  0  0  0  0  0  0  0  0
    2.9875    1.1458    0.0000 S   0  0  0  0  0  0  0  0  0  0  0  0
    3.3625    1.7958    0.0000 C   0  0  0  0  0  0  0  0  0  0  0  0
    2.2375    1.1458    0.0000 C   0  0  0  0  0  0  0  0  0  0  0  0
    0.7375    1.1458    0.0000 C   0  0  0  0  0  0  0  0  0  0  0  0
    1.8625    0.4958    0.0000 C   0  0  0  0  0  0  0  0  0  0  0  0
    1.8625    1.7958    0.0000 C   0  0  0  0  0  0  0  0  0  0  0  0
    1.1125    1.7958    0.0000 C   0  0  0  0  0  0  0  0  0  0  0  0
    1.1125    0.4958    0.0000 C   0  0  0  0  0  0  0  0  0  0  0  0
    6.9542    2.0833    0.0000 C   0  0  0  0  0  0  0  0  0  0  0  0
    7.1125    0.5875    0.0000 C   0  0  0  0  0  0  0  0  0  0  0  0
   -0.0125    1.1458    0.0000 C   0  0  0  0  0  0  0  0  0  0  0  0
    7.6375    1.7750    0.0000 C   0  0  0  0  0  0  0  0  0  0  0  0
    7.7167    1.0333    0.0000 C   0  0  0  0  0  0  0  0  0  0  0  0
  2  1  1  0  0  0  0
  3  1  1  0  0  0  0
  4  2  2  0  0  0  0
  5  3  1  0  0  0  0
  6  2  1  0  0  0  0
  7  1  1  0  0  0  0
  8  7  2  0  0  0  0
  9  5  2  0  0  0  0
 10  3  2  0  0  0  0
 11 12  1  0  0  0  0
 12  9  1  0  0  0  0
 13 11  1  0  0  0  0
 14 17  1  0  0  0  0
 15 13  2  0  0  0  0
 16 13  1  0  0  0  0
 17 16  2  0  0  0  0
 18 15  1  0  0  0  0
 19  7  1  0  0  0  0
 20  8  1  0  0  0  0
 21 14  1  0  0  0  0
 22 19  2  0  0  0  0
 23 22  1  0  0  0  0
  4  8  1  0  0  0  0
  9  6  1  0  0  0  0
 20 23  2  0  0  0  0
 18 14  2  0  0  0  0
M  END
>  <ID> (9026218)
9026218

>  <Supplier> (9026218)
ChemBridge

>  <clogP> (9026218)
3.078000000000000e+000

>  <RB> (9026218)
3

>  <tPSA> (9026218)
5.016000000000000e+001

>  <Hacc> (9026218)
2

>  <Hdon> (9026218)
1

>  <LogSw> (9026218)
-4.172000000000000e+000

>  <Group> (9026218)
2

>  <Core> (9026218)
258

$$$$
9033297
  -ISIS-  03310818282D

 20 21  0  0  0  0  0  0  0  0999 V2000
    5.3125    3.4208    0.0000 S   0  0  3  0  0  0  0  0  0  0  0  0
    4.1542    3.0458    0.0000 C   0  0  3  0  0  0  0  0  0  0  0  0
    3.4042    3.0458    0.0000 N   0  0  3  0  0  0  0  0  0  0  0  0
    4.6000    3.6500    0.0000 C   0  0  0  0  0  0  0  0  0  0  0  0
    4.6000    2.4375    0.0000 C   0  0  0  0  0  0  0  0  0  0  0  0
    5.3125    2.6708    0.0000 C   0  0  0  0  0  0  0  0  0  0  0  0
    3.0292    2.3958    0.0000 C   0  0  0  0  0  0  0  0  0  0  0  0
    3.0292    3.6958    0.0000 C   0  0  0  0  0  0  0  0  0  0  0  0
    6.0542    3.3458    0.0000 O   0  0  0  0  0  0  0  0  0  0  0  0
    5.4667    4.1500    0.0000 O   0  0  0  0  0  0  0  0  0  0  0  0
    2.2792    2.3958    0.0000 C   0  0  0  0  0  0  0  0  0  0  0  0
    2.2792    3.6958    0.0000 O   0  0  0  0  0  0  0  0  0  0  0  0
    1.9042    3.0458    0.0000 O   0  0  0  0  0  0  0  0  0  0  0  0
    3.4042    1.7458    0.0000 C   0  0  0  0  0  0  0  0  0  0  0  0
    3.4042    4.3375    0.0000 C   0  0  0  0  0  0  0  0  0  0  0  0
    1.9042    1.7458    0.0000 C   0  0  0  0  0  0  0  0  0  0  0  0
    1.1542    3.0458    0.0000 C   0  0  0  0  0  0  0  0  0  0  0  0
    3.0292    1.0958    0.0000 C   0  0  0  0  0  0  0  0  0  0  0  0
    0.7792    3.6958    0.0000 C   0  0  0  0  0  0  0  0  0  0  0  0
    2.2792    1.0958    0.0000 C   0  0  0  0  0  0  0  0  0  0  0  0
  2  4  1  0  0  0  0
  3  2  1  0  0  0  0
  4  1  1  0  0  0  0
  5  6  2  0  0  0  0
  6  1  1  0  0  0  0
  7  3  1  0  0  0  0
  8  3  1  0  0  0  0
  9  1  2  0  0  0  0
 10  1  2  0  0  0  0
 11  7  2  0  0  0  0
 12  8  2  0  0  0  0
 13 11  1  0  0  0  0
 14  7  1  0  0  0  0
 15  8  1  0  0  0  0
 16 11  1  0  0  0  0
 17 13  1  0  0  0  0
 18 14  2  0  0  0  0
 19 17  1  0  0  0  0
 20 18  1  0  0  0  0
  5  2  1  0  0  0  0
 20 16  2  0  0  0  0
M  END
>  <ID> (9033297)
9033297

>  <Supplier> (9033297)
ChemBridge

>  <clogP> (9033297)
6.100000000000000e-001

>  <RB> (9033297)
2

>  <tPSA> (9033297)
6.367999999999994e+001

>  <Hacc> (9033297)
4

>  <Hdon> (9033297)
0

>  <LogSw> (9033297)
-1.875000000000000e+000

>  <Group> (9033297)
1

$$$$
7656899
  -ISIS-  03310818262D

 32 34  0  0  0  0  0  0  0  0999 V2000
    4.4875    0.8333    0.0000 S   0  0  3  0  0  0  0  0  0  0  0  0
   -1.1708    0.8333    0.0000 S   0  0  3  0  0  0  0  0  0  0  0  0
    2.3292    0.5708    0.0000 C   0  0  0  0  0  0  0  0  0  0  0  0
    0.9917    0.5625    0.0000 C   0  0  0  0  0  0  0  0  0  0  0  0
    2.0667    1.3500    0.0000 C   0  0  0  0  0  0  0  0  0  0  0  0
    1.2542    1.3500    0.0000 C   0  0  0  0  0  0  0  0  0  0  0  0
    1.6625    0.0833    0.0000 C   0  0  3  0  0  0  0  0  0  0  0  0
    3.6792    1.0083    0.0000 C   0  0  0  0  0  0  0  0  0  0  0  0
   -0.3625    1.0083    0.0000 C   0  0  0  0  0  0  0  0  0  0  0  0
    3.1292    0.3958    0.0000 C   0  0  0  0  0  0  0  0  0  0  0  0
    0.1917    0.3958    0.0000 C   0  0  0  0  0  0  0  0  0  0  0  0
    2.6250    1.9583    0.0000 C   0  0  0  0  0  0  0  0  0  0  0  0
    0.7042    1.9625    0.0000 C   0  0  0  0  0  0  0  0  0  0  0  0
   -1.7208    1.4458    0.0000 O   0  0  0  0  0  0  0  0  0  0  0  0
   -1.4208    0.0458    0.0000 O   0  0  0  0  0  0  0  0  0  0  0  0
    4.7417    0.0458    0.0000 O   0  0  0  0  0  0  0  0  0  0  0  0
    5.0417    1.4458    0.0000 O   0  0  0  0  0  0  0  0  0  0  0  0
    5.2792    0.6208    0.0000 N   0  0  0  0  0  0  0  0  0  0  0  0
   -1.9708    0.6208    0.0000 N   0  0  0  0  0  0  0  0  0  0  0  0
    3.4250    1.7875    0.0000 C   0  0  0  0  0  0  0  0  0  0  0  0
   -0.1083    1.7958    0.0000 C   0  0  0  0  0  0  0  0  0  0  0  0
    1.6667   -0.7417    0.0000 O   0  0  0  0  0  0  0  0  0  0  0  0
    5.4917   -0.1792    0.0000 C   0  0  0  0  0  0  0  0  0  0  0  0
   -2.5500    1.2083    0.0000 C   0  0  0  0  0  0  0  0  0  0  0  0
    6.2917   -0.3917    0.0000 C   0  0  0  0  0  0  0  0  0  0  0  0
   -3.3458    0.9958    0.0000 C   0  0  0  0  0  0  0  0  0  0  0  0
    6.5042   -1.1875    0.0000 C   0  0  3  0  0  0  0  0  0  0  0  0
   -3.9333    1.5833    0.0000 C   0  0  3  0  0  0  0  0  0  0  0  0
    5.9250   -1.7667    0.0000 C   0  0  0  0  0  0  0  0  0  0  0  0
    7.3042   -1.4000    0.0000 C   0  0  0  0  0  0  0  0  0  0  0  0
   -3.7083    2.3833    0.0000 C   0  0  0  0  0  0  0  0  0  0  0  0
   -4.7250    1.3708    0.0000 C   0  0  0  0  0  0  0  0  0  0  0  0
  2  9  1  0  0  0  0
  3 10  1  0  0  0  0
  4  7  1  0  0  0  0
  5 12  1  0  0  0  0
  6  5  1  0  0  0  0
  7  3  1  0  0  0  0
  8  1  1  0  0  0  0
  9 11  2  0  0  0  0
 10  8  2  0  0  0  0
 11  4  1  0  0  0  0
 12 20  2  0  0  0  0
 13  6  1  0  0  0  0
 14  2  2  0  0  0  0
 15  2  2  0  0  0  0
 16  1  2  0  0  0  0
 17  1  2  0  0  0  0
 18  1  1  0  0  0  0
 19  2  1  0  0  0  0
 20  8  1  0  0  0  0
 21 13  2  0  0  0  0
 22  7  1  0  0  0  0
 23 18  1  0  0  0  0
 24 19  1  0  0  0  0
 25 23  1  0  0  0  0
 26 24  1  0  0  0  0
 27 25  1  0  0  0  0
 28 26  1  0  0  0  0
 29 27  1  0  0  0  0
 30 27  1  0  0  0  0
 31 28  1  0  0  0  0
 32 28  1  0  0  0  0
  5  3  2  0  0  0  0
  4  6  2  0  0  0  0
 21  9  1  0  0  0  0
M  END
>  <ID> (7656899)
7656899

>  <Supplier> (7656899)
ChemBridge

>  <clogP> (7656899)
4.119000000000000e+000

>  <RB> (7656899)
6

>  <tPSA> (7656899)
1.125700000000000e+002

>  <Hacc> (7656899)
7

>  <Hdon> (7656899)
3

>  <LogSw> (7656899)
-7.381000000000000e+000

>  <Group> (7656899)
1

$$$$
9153513
  -ISIS-  03310818292D

 15 16  0  0  0  0  0  0  0  0999 V2000
    3.0417    2.1625    0.0000 C   0  0  0  0  0  0  0  0  0  0  0  0
    2.4375    2.6000    0.0000 N   0  0  0  0  0  0  0  0  0  0  0  0
    2.8125    1.4458    0.0000 N   0  0  0  0  0  0  0  0  0  0  0  0
    2.0625    1.4458    0.0000 N   0  0  0  0  0  0  0  0  0  0  0  0
    1.8292    2.1625    0.0000 N   0  0  3  0  0  0  0  0  0  0  0  0
    3.7542    2.3958    0.0000 N   0  0  0  0  0  0  0  0  0  0  0  0
    5.0250    2.1208    0.0000 C   0  0  0  0  0  0  0  0  0  0  0  0
    4.3125    1.8958    0.0000 C   0  0  0  0  0  0  0  0  0  0  0  0
    5.6292    1.6833    0.0000 O   0  0  0  0  0  0  0  0  0  0  0  0
    6.2417    2.1208    0.0000 C   0  0  0  0  0  0  0  0  0  0  0  0
    5.2542    2.8375    0.0000 C   0  0  0  0  0  0  0  0  0  0  0  0
    6.0042    2.8375    0.0000 C   0  0  0  0  0  0  0  0  0  0  0  0
    4.1542    1.1583    0.0000 O   0  0  0  0  0  0  0  0  0  0  0  0
    6.9542    1.8958    0.0000 Br  0  0  0  0  0  0  0  0  0  0  0  0
    1.1167    2.3958    0.0000 C   0  0  0  0  0  0  0  0  0  0  0  0
  2  1  2  0  0  0  0
  3  1  1  0  0  0  0
  4  3  2  0  0  0  0
  5  2  1  0  0  0  0
  6  1  1  0  0  0  0
  7  8  1  0  0  0  0
  8  6  1  0  0  0  0
  9  7  1  0  0  0  0
 10  9  1  0  0  0  0
 11  7  2  0  0  0  0
 12 11  1  0  0  0  0
 13  8  2  0  0  0  0
 14 10  1  0  0  0  0
 15  5  1  0  0  0  0
  4  5  1  0  0  0  0
 10 12  2  0  0  0  0
M  END
>  <ID> (9153513)
9153513

>  <Supplier> (9153513)
ChemBridge

>  <clogP> (9153513)
3.320000000000000e-001

>  <RB> (9153513)
2

>  <tPSA> (9153513)
8.584000000000000e+001

>  <Hacc> (9153513)
5

>  <Hdon> (9153513)
1

>  <LogSw> (9153513)
-2.778000000000000e+000

>  <Group> (9153513)
2

$$$$
5182236
  -ISIS-  03310818212D

 12 12  0  0  0  0  0  0  0  0999 V2000
   -0.2500    0.4833    0.0000 C   0  0  0  0  0  0  0  0  0  0  0  0
    0.4292    0.9000    0.0000 N   0  3  0  0  0  0  0  0  0  0  0  0
   -0.2500   -0.3000    0.0000 C   0  0  0  0  0  0  0  0  0  0  0  0
   -0.9333   -0.6875    0.0000 C   0  0  0  0  0  0  0  0  0  0  0  0
   -0.9333    0.8708    0.0000 C   0  0  0  0  0  0  0  0  0  0  0  0
   -1.6125   -0.3000    0.0000 C   0  0  0  0  0  0  0  0  0  0  0  0
    1.1042    0.5125    0.0000 O   0  5  0  0  0  0  0  0  0  0  0  0
    0.4292    1.6833    0.0000 O   0  0  0  0  0  0  0  0  0  0  0  0
   -1.6125    0.4833    0.0000 C   0  0  0  0  0  0  0  0  0  0  0  0
    0.4292   -0.6875    0.0000 N   0  0  0  0  0  0  0  0  0  0  0  0
   -0.9333   -1.4667    0.0000 Cl  0  0  0  0  0  0  0  0  0  0  0  0
   -2.2958    0.9000    0.0000 Cl  0  0  0  0  0  0  0  0  0  0  0  0
  2  1  1  0  0  0  0
  3  1  2  0  0  0  0
  4  3  1  0  0  0  0
  5  1  1  0  0  0  0
  6  9  1  0  0  0  0
  7  2  1  0  0  0  0
  8  2  2  0  0  0  0
  9  5  2  0  0  0  0
 10  3  1  0  0  0  0
 11  4  1  0  0  0  0
 12  9  1  0  0  0  0
  6  4  2  0  0  0  0
M  CHG  2   2   1   7  -1
M  END
>  <ID> (5182236)
5182236

>  <Supplier> (5182236)
ChemBridge

>  <clogP> (5182236)
3.330000000000000e+000

>  <RB> (5182236)
0

>  <tPSA> (5182236)
6.916000000000000e+001

>  <Hacc> (5182236)
2

>  <Hdon> (5182236)
1

>  <LogSw> (5182236)
-3.555000000000000e+000

>  <Group> (5182236)
3

$$$$
7751754
  -ISIS-  03310818262D

 25 27  0  0  0  0  0  0  0  0999 V2000
    3.7125   -2.3292    0.0000 N   0  0  0  0  0  0  0  0  0  0  0  0
    2.9542   -2.6667    0.0000 C   0  0  0  0  0  0  0  0  0  0  0  0
    3.0417   -3.4917    0.0000 N   0  0  0  0  0  0  0  0  0  0  0  0
    4.2667   -2.9417    0.0000 C   0  0  0  0  0  0  0  0  0  0  0  0
    3.8542   -3.6625    0.0000 O   0  0  0  0  0  0  0  0  0  0  0  0
    2.2417   -2.2625    0.0000 C   0  0  0  0  0  0  0  0  0  0  0  0
    6.3917   -3.4375    0.0000 C   0  0  0  0  0  0  0  0  0  0  0  0
    6.7292   -2.6792    0.0000 O   0  0  0  0  0  0  0  0  0  0  0  0
    6.8792   -4.1042    0.0000 O   0  0  0  0  0  0  0  0  0  0  0  0
    2.2417   -1.4292    0.0000 C   0  0  0  0  0  0  0  0  0  0  0  0
    1.5250   -2.6750    0.0000 C   0  0  0  0  0  0  0  0  0  0  0  0
    5.0875   -2.8542    0.0000 C   0  0  0  0  0  0  0  0  0  0  0  0
    5.5667   -3.5250    0.0000 C   0  0  0  0  0  0  0  0  0  0  0  0
    0.8125   -1.4375    0.0000 C   0  0  0  0  0  0  0  0  0  0  0  0
    8.0042   -6.8542    0.0000 C   0  0  0  0  0  0  0  0  0  0  0  0
    7.0292   -5.5250    0.0000 C   0  0  0  0  0  0  0  0  0  0  0  0
    6.5417   -4.8542    0.0000 C   0  0  0  0  0  0  0  0  0  0  0  0
    0.8125   -2.2625    0.0000 C   0  0  0  0  0  0  0  0  0  0  0  0
    1.5250   -1.0167    0.0000 C   0  0  0  0  0  0  0  0  0  0  0  0
    0.1000   -1.0167    0.0000 Cl  0  0  0  0  0  0  0  0  0  0  0  0
    8.4917   -7.5167    0.0000 Br  0  0  0  0  0  0  0  0  0  0  0  0
    8.3417   -6.0917    0.0000 C   0  0  0  0  0  0  0  0  0  0  0  0
    7.1875   -6.9417    0.0000 C   0  0  0  0  0  0  0  0  0  0  0  0
    7.8500   -5.4292    0.0000 C   0  0  0  0  0  0  0  0  0  0  0  0
    6.7000   -6.2792    0.0000 C   0  0  0  0  0  0  0  0  0  0  0  0
  2  1  1  0  0  0  0
  3  2  2  0  0  0  0
  4  1  2  0  0  0  0
  5  4  1  0  0  0  0
  6  2  1  0  0  0  0
  7 13  1  0  0  0  0
  8  7  2  0  0  0  0
  9  7  1  0  0  0  0
 10  6  1  0  0  0  0
 11  6  2  0  0  0  0
 12  4  1  0  0  0  0
 13 12  1  0  0  0  0
 14 18  2  0  0  0  0
 15 23  2  0  0  0  0
 16 17  1  0  0  0  0
 17  9  1  0  0  0  0
 18 11  1  0  0  0  0
 19 10  2  0  0  0  0
 20 14  1  0  0  0  0
 21 15  1  0  0  0  0
 22 24  2  0  0  0  0
 23 25  1  0  0  0  0
 24 16  1  0  0  0  0
 25 16  2  0  0  0  0
  3  5  1  0  0  0  0
 19 14  1  0  0  0  0
 22 15  1  0  0  0  0
M  END
>  <ID> (7751754)
7751754

>  <Supplier> (7751754)
ChemBridge

>  <clogP> (7751754)
4.856999999999998e+000

>  <RB> (7751754)
7

>  <tPSA> (7751754)
6.522000000000000e+001

>  <Hacc> (7751754)
5

>  <Hdon> (7751754)
0

>  <LogSw> (7751754)
-6.807000000000000e+000

>  <Group> (7751754)
1

>  <Core> (7751754)
206

$$$$
5553566
  -ISIS-  03310818222D

 22 23  0  0  0  0  0  0  0  0999 V2000
    4.4667   -4.6542    0.0000 C   0  0  0  0  0  0  0  0  0  0  0  0
    4.4625   -5.4042    0.0000 C   0  0  3  0  0  0  0  0  0  0  0  0
    5.1167   -4.2792    0.0000 N   0  0  0  0  0  0  0  0  0  0  0  0
    5.1167   -3.5292    0.0000 C   0  0  3  0  0  0  0  0  0  0  0  0
    5.7667   -3.1542    0.0000 C   0  0  0  0  0  0  0  0  0  0  0  0
    4.4667   -3.1542    0.0000 C   0  0  0  0  0  0  0  0  0  0  0  0
    3.8167   -4.2792    0.0000 O   0  0  0  0  0  0  0  0  0  0  0  0
    3.8042   -5.7667    0.0000 F   0  0  0  0  0  0  0  0  0  0  0  0
    5.1042   -5.7792    0.0000 F   0  0  0  0  0  0  0  0  0  0  0  0
    4.3417   -6.0417    0.0000 F   0  0  0  0  0  0  0  0  0  0  0  0
    5.7667   -2.4042    0.0000 C   0  0  0  0  0  0  0  0  0  0  0  0
    3.8167   -3.5292    0.0000 C   0  0  0  0  0  0  0  0  0  0  0  0
    4.4667   -2.4042    0.0000 C   0  0  0  0  0  0  0  0  0  0  0  0
    6.4167   -3.5292    0.0000 C   0  0  0  0  0  0  0  0  0  0  0  0
    3.1667   -2.4042    0.0000 C   0  0  0  0  0  0  0  0  0  0  0  0
    7.0667   -2.4042    0.0000 C   0  0  0  0  0  0  0  0  0  0  0  0
    3.1667   -3.1542    0.0000 C   0  0  0  0  0  0  0  0  0  0  0  0
    7.0667   -3.1542    0.0000 C   0  0  0  0  0  0  0  0  0  0  0  0
    3.8167   -2.0250    0.0000 C   0  0  0  0  0  0  0  0  0  0  0  0
    6.4167   -2.0292    0.0000 C   0  0  0  0  0  0  0  0  0  0  0  0
    7.7167   -2.0375    0.0000 Cl  0  0  0  0  0  0  0  0  0  0  0  0
    2.5167   -2.0292    0.0000 Cl  0  0  0  0  0  0  0  0  0  0  0  0
  2  1  1  0  0  0  0
  3  1  1  0  0  0  0
  4  3  1  0  0  0  0
  5  4  1  0  0  0  0
  6  4  1  0  0  0  0
  7  1  2  0  0  0  0
  8  2  1  0  0  0  0
  9  2  1  0  0  0  0
 10  2  1  0  0  0  0
 11  5  2  0  0  0  0
 12  6  1  0  0  0  0
 13  6  2  0  0  0  0
 14  5  1  0  0  0  0
 15 19  2  0  0  0  0
 16 18  1  0  0  0  0
 17 12  2  0  0  0  0
 18 14  2  0  0  0  0
 19 13  1  0  0  0  0
 20 11  1  0  0  0  0
 21 16  1  0  0  0  0
 22 15  1  0  0  0  0
 15 17  1  0  0  0  0
 16 20  2  0  0  0  0
M  END
>  <ID> (5553566)
5553566

>  <Supplier> (5553566)
ChemBridge

>  <clogP> (5553566)
4.830000000000000e+000

>  <RB> (5553566)
3

>  <tPSA> (5553566)
2.910000000000000e+001

>  <Hacc> (5553566)
1

>  <Hdon> (5553566)
1

>  <LogSw> (5553566)
-5.863000000000000e+000

>  <Group> (5553566)
2

$$$$
5553567
  -ISIS-  03310818222D

 22 21  0  0  0  0  0  0  0  0999 V2000
   -0.4125    1.9333    0.0000 C   0  0  0  0  0  0  0  0  0  0  0  0
   -0.8333    2.6708    0.0000 C   0  0  0  0  0  0  0  0  0  0  0  0
    0.4667    1.9333    0.0000 C   0  0  0  0  0  0  0  0  0  0  0  0
   -0.8333    1.1708    0.0000 C   0  0  0  0  0  0  0  0  0  0  0  0
   -1.6958    2.6500    0.0000 C   0  0  0  0  0  0  0  0  0  0  0  0
    0.8875    2.6708    0.0000 O   0  0  0  0  0  0  0  0  0  0  0  0
   -2.1333    1.9125    0.0000 C   0  0  0  0  0  0  0  0  0  0  0  0
    0.8875    1.1708    0.0000 O   0  0  0  0  0  0  0  0  0  0  0  0
   -0.3958    3.4208    0.0000 O   0  0  0  0  0  0  0  0  0  0  0  0
   -1.6708    1.1708    0.0000 C   0  0  0  0  0  0  0  0  0  0  0  0
    3.0000    0.4125    0.0000 N   0  0  3  0  0  0  0  0  0  0  0  0
    4.4542    1.4833    0.0000 Cl  0  0  0  0  0  0  0  0  0  0  0  0
    1.7292    1.1708    0.0000 C   0  0  0  0  0  0  0  0  0  0  0  0
   -2.9958    1.9125    0.0000 O   0  0  0  0  0  0  0  0  0  0  0  0
    2.1500    0.4125    0.0000 C   0  0  0  0  0  0  0  0  0  0  0  0
    3.4292    1.1458    0.0000 C   0  0  0  0  0  0  0  0  0  0  0  0
    3.4167   -0.3292    0.0000 C   0  0  0  0  0  0  0  0  0  0  0  0
   -3.4125    1.1708    0.0000 C   0  0  0  0  0  0  0  0  0  0  0  0
   -4.2708    1.1708    0.0000 C   0  0  0  0  0  0  0  0  0  0  0  0
    2.9875   -1.0542    0.0000 C   0  0  0  0  0  0  0  0  0  0  0  0
    3.0042    1.8958    0.0000 C   0  0  0  0  0  0  0  0  0  0  0  0
   -4.6958    0.4333    0.0000 C   0  0  0  0  0  0  0  0  0  0  0  0
  2  1  2  0  0  0  0
  3  1  1  0  0  0  0
  4  1  1  0  0  0  0
  5  2  1  0  0  0  0
  6  3  2  0  0  0  0
  7 10  1  0  0  0  0
  8  3  1  0  0  0  0
  9  2  1  0  0  0  0
 10  4  2  0  0  0  0
 11 15  1  0  0  0  0
 13  8  1  0  0  0  0
 14  7  1  0  0  0  0
 15 13  1  0  0  0  0
 16 11  1  0  0  0  0
 17 11  1  0  0  0  0
 18 14  1  0  0  0  0
 19 18  1  0  0  0  0
 20 17  1  0  0  0  0
 21 16  1  0  0  0  0
 22 19  1  0  0  0  0
  7  5  2  0  0  0  0
M  END
>  <ID> (5553567)
5553567

>  <Supplier> (5553567)
ChemBridge

>  <clogP> (5553567)
1.000000000000000e+000

>  <RB> (5553567)
5

>  <tPSA> (5553567)
5.900000000000000e+001

>  <Hacc> (5553567)
5

>  <Hdon> (5553567)
1

>  <LogSw> (5553567)
-6.200000000000000e-001

>  <Group> (5553567)
3

$$$$
5553565
  -ISIS-  03310818222D

 23 23  0  0  0  0  0  0  0  0999 V2000
    1.9792    1.2500    0.0000 C   0  0  3  0  0  0  0  0  0  0  0  0
    1.4542    0.9500    0.0000 C   0  0  3  0  0  0  0  0  0  0  0  0
    2.5042    0.9500    0.0000 C   0  0  3  0  0  0  0  0  0  0  0  0
    0.9375    1.2500    0.0000 C   0  0  3  0  0  0  0  0  0  0  0  0
    0.4167    0.9500    0.0000 N   0  0  0  0  0  0  0  0  0  0  0  0
    0.9375    1.8500    0.0000 N   0  0  3  0  0  0  0  0  0  0  0  0
    3.0167    1.2500    0.0000 C   0  0  3  0  0  0  0  0  0  0  0  0
   -0.0958    1.2500    0.0000 C   0  0  0  0  0  0  0  0  0  0  0  0
    1.9792    0.6500    0.0000 F   0  0  0  0  0  0  0  0  0  0  0  0
    1.9792    1.8500    0.0000 F   0  0  0  0  0  0  0  0  0  0  0  0
    1.4542    1.5458    0.0000 F   0  0  0  0  0  0  0  0  0  0  0  0
    1.4542    0.3500    0.0000 F   0  0  0  0  0  0  0  0  0  0  0  0
    2.5167    0.3625    0.0000 F   0  0  0  0  0  0  0  0  0  0  0  0
    2.5042    1.5333    0.0000 F   0  0  0  0  0  0  0  0  0  0  0  0
   -0.0958    1.8500    0.0000 O   0  0  0  0  0  0  0  0  0  0  0  0
    3.0042    1.8458    0.0000 F   0  0  0  0  0  0  0  0  0  0  0  0
    3.0375    0.6708    0.0000 F   0  0  0  0  0  0  0  0  0  0  0  0
    0.4167    2.1458    0.0000 C   0  0  0  0  0  0  0  0  0  0  0  0
    1.4542    2.1500    0.0000 C   0  0  0  0  0  0  0  0  0  0  0  0
   -0.6125    0.9500    0.0000 C   0  0  0  0  0  0  0  0  0  0  0  0
    1.4542    2.7500    0.0000 C   0  0  0  0  0  0  0  0  0  0  0  0
    0.4042    2.7500    0.0000 C   0  0  0  0  0  0  0  0  0  0  0  0
    0.9292    3.0500    0.0000 C   0  0  0  0  0  0  0  0  0  0  0  0
  2  1  1  0  0  0  0
  3  1  1  0  0  0  0
  4  2  1  0  0  0  0
  5  4  1  0  0  0  0
  6  4  1  0  0  0  0
  7  3  1  0  0  0  0
  8  5  1  0  0  0  0
  9  1  1  0  0  0  0
 10  1  1  0  0  0  0
 11  2  1  0  0  0  0
 12  2  1  0  0  0  0
 13  3  1  0  0  0  0
 14  3  1  0  0  0  0
 15  8  2  0  0  0  0
 16  7  1  0  0  0  0
 17  7  1  0  0  0  0
 18  6  1  0  0  0  0
 19  6  1  0  0  0  0
 20  8  1  0  0  0  0
 21 19  1  0  0  0  0
 22 18  1  0  0  0  0
 23 21  1  0  0  0  0
 22 23  1  0  0  0  0
M  END
>  <ID> (5553565)
5553565

>  <Supplier> (5553565)
ChemBridge

>  <clogP> (5553565)
2.000000000000000e+000

>  <RB> (5553565)
5

>  <tPSA> (5553565)
3.234000000000000e+001

>  <Hacc> (5553565)
2

>  <Hdon> (5553565)
1

>  <LogSw> (5553565)
-3.506000000000000e+000

>  <Group> (5553565)
1

$$$$
5260464
  -ISIS-  03310818212D

 16 17  0  0  0  0  0  0  0  0999 V2000
   -0.6833    1.0500    0.0000 C   0  0  0  0  0  0  0  0  0  0  0  0
   -0.7000   -0.0667    0.0000 N   0  0  0  0  0  0  0  0  0  0  0  0
   -1.6333    1.6208    0.0000 C   0  0  0  0  0  0  0  0  0  0  0  0
   -1.6625   -2.8875    0.0000 N   0  0  0  0  0  0  0  0  0  0  0  0
    0.2542   -0.6500    0.0000 C   0  0  0  0  0  0  0  0  0  0  0  0
   -0.7000   -2.3292    0.0000 C   0  0  0  0  0  0  0  0  0  0  0  0
    0.2542   -1.7667    0.0000 C   0  0  0  0  0  0  0  0  0  0  0  0
   -1.7500    2.7458    0.0000 O   0  0  0  0  0  0  0  0  0  0  0  0
    0.2792    1.6125    0.0000 O   0  0  0  0  0  0  0  0  0  0  0  0
   -2.6500    1.1958    0.0000 C   0  0  0  0  0  0  0  0  0  0  0  0
   -2.8625    2.9833    0.0000 C   0  0  0  0  0  0  0  0  0  0  0  0
   -3.4208    2.0333    0.0000 C   0  0  0  0  0  0  0  0  0  0  0  0
    1.2167   -2.3292    0.0000 C   0  0  0  0  0  0  0  0  0  0  0  0
    1.2167   -0.1042    0.0000 C   0  0  0  0  0  0  0  0  0  0  0  0
    2.1792   -1.7667    0.0000 C   0  0  0  0  0  0  0  0  0  0  0  0
    2.1792   -0.6500    0.0000 C   0  0  0  0  0  0  0  0  0  0  0  0
  2  1  1  0  0  0  0
  3  1  1  0  0  0  0
  4  6  3  0  0  0  0
  5  2  1  0  0  0  0
  6  7  1  0  0  0  0
  7  5  2  0  0  0  0
  8  3  1  0  0  0  0
  9  1  2  0  0  0  0
 10  3  2  0  0  0  0
 11  8  1  0  0  0  0
 12 10  1  0  0  0  0
 13  7  1  0  0  0  0
 14  5  1  0  0  0  0
 15 16  1  0  0  0  0
 16 14  2  0  0  0  0
 12 11  2  0  0  0  0
 13 15  2  0  0  0  0
M  END
>  <ID> (5260464)
5260464

>  <Supplier> (5260464)
ChemBridge

>  <clogP> (5260464)
1.150000000000000e+000

>  <RB> (5260464)
2

>  <tPSA> (5260464)
6.603000000000000e+001

>  <Hacc> (5260464)
3

>  <Hdon> (5260464)
1

>  <LogSw> (5260464)
-1.996000000000000e+000

>  <Group> (5260464)
3

>  <Core> (5260464)
511

$$$$
7156496
  -ISIS-  03310818252D

 26 28  0  0  0  0  0  0  0  0999 V2000
    0.7167    0.1125    0.0000 C   0  0  0  0  0  0  0  0  0  0  0  0
   -0.4458    0.1125    0.0000 C   0  0  0  0  0  0  0  0  0  0  0  0
    0.1375    0.4458    0.0000 C   0  0  3  0  0  0  0  0  0  0  0  0
   -0.4458   -0.5500    0.0000 C   0  0  0  0  0  0  0  0  0  0  0  0
    0.7167   -0.5500    0.0000 C   0  0  0  0  0  0  0  0  0  0  0  0
    0.1375   -0.8792    0.0000 N   0  0  0  0  0  0  0  0  0  0  0  0
   -1.0208    0.4458    0.0000 C   0  0  0  0  0  0  0  0  0  0  0  0
    0.1375    1.1000    0.0000 C   0  0  0  0  0  0  0  0  0  0  0  0
    1.2500    0.4125    0.0000 C   0  0  0  0  0  0  0  0  0  0  0  0
   -1.0208   -0.8792    0.0000 C   0  0  0  0  0  0  0  0  0  0  0  0
   -1.6000   -0.5500    0.0000 C   0  0  3  0  0  0  0  0  0  0  0  0
   -1.6000    0.1125    0.0000 C   0  0  0  0  0  0  0  0  0  0  0  0
    0.7042    1.4208    0.0000 C   0  0  0  0  0  0  0  0  0  0  0  0
   -0.4333    1.4333    0.0000 C   0  0  0  0  0  0  0  0  0  0  0  0
   -1.0208    0.8625    0.0000 O   0  0  0  0  0  0  0  0  0  0  0  0
    1.7667    0.1000    0.0000 O   0  0  0  0  0  0  0  0  0  0  0  0
    1.2542    1.0333    0.0000 O   0  0  0  0  0  0  0  0  0  0  0  0
    1.2167   -0.7542    0.0000 C   0  0  0  0  0  0  0  0  0  0  0  0
   -0.7333    1.2708    0.0000 F   0  0  0  0  0  0  0  0  0  0  0  0
    1.0542    1.2500    0.0000 F   0  0  0  0  0  0  0  0  0  0  0  0
   -1.8000   -1.0667    0.0000 C   0  0  0  0  0  0  0  0  0  0  0  0
   -2.0708   -0.5042    0.0000 C   0  0  0  0  0  0  0  0  0  0  0  0
    0.1542    2.4333    0.0000 C   0  0  0  0  0  0  0  0  0  0  0  0
   -0.4208    2.1000    0.0000 C   0  0  0  0  0  0  0  0  0  0  0  0
    0.7167    2.0958    0.0000 C   0  0  0  0  0  0  0  0  0  0  0  0
    1.7542    1.2708    0.0000 C   0  0  0  0  0  0  0  0  0  0  0  0
  2  3  1  0  0  0  0
  3  1  1  0  0  0  0
  4  6  1  0  0  0  0
  5  1  2  0  0  0  0
  6  5  1  0  0  0  0
  7  2  1  0  0  0  0
  8  3  1  0  0  0  0
  9  1  1  0  0  0  0
 10  4  1  0  0  0  0
 11 10  1  0  0  0  0
 12  7  1  0  0  0  0
 13  8  1  0  0  0  0
 14  8  2  0  0  0  0
 15  7  2  0  0  0  0
 16  9  2  0  0  0  0
 17  9  1  0  0  0  0
 18  5  1  0  0  0  0
 19 14  1  0  0  0  0
 20 13  1  0  0  0  0
 21 11  1  0  0  0  0
 22 11  1  0  0  0  0
 23 24  2  0  0  0  0
 24 14  1  0  0  0  0
 25 13  2  0  0  0  0
 26 17  1  0  0  0  0
  4  2  2  0  0  0  0
 23 25  1  0  0  0  0
 11 12  1  0  0  0  0
M  END
>  <ID> (7156496)
7156496

>  <Supplier> (7156496)
ChemBridge

>  <clogP> (7156496)
3.860000000000000e+000

>  <RB> (7156496)
2

>  <tPSA> (7156496)
5.540000000000000e+001

>  <Hacc> (7156496)
3

>  <Hdon> (7156496)
1

>  <LogSw> (7156496)
-4.122999999999998e+000

>  <Group> (7156496)
2

>  <Core> (7156496)
085

$$$$
5260463
  -ISIS-  03310818212D

 25 27  0  0  0  0  0  0  0  0999 V2000
    1.4375    3.2833    0.0000 C   0  0  3  0  0  0  0  0  0  0  0  0
   -3.2625    2.8958    0.0000 N   0  0  3  0  0  0  0  0  0  0  0  0
   -3.9333    3.2708    0.0000 C   0  0  0  0  0  0  0  0  0  0  0  0
   -1.9333    2.1125    0.0000 N   0  0  3  0  0  0  0  0  0  0  0  0
    0.7667    2.8958    0.0000 C   0  0  0  0  0  0  0  0  0  0  0  0
   -3.2625    2.1125    0.0000 C   0  0  0  0  0  0  0  0  0  0  0  0
   -2.5958    3.2708    0.0000 C   0  0  0  0  0  0  0  0  0  0  0  0
   -3.9333    4.0417    0.0000 C   0  0  0  0  0  0  0  0  0  0  0  0
    2.0875    3.6708    0.0000 F   0  0  0  0  0  0  0  0  0  0  0  0
    1.0375    3.9625    0.0000 F   0  0  0  0  0  0  0  0  0  0  0  0
    1.8167    2.6000    0.0000 F   0  0  0  0  0  0  0  0  0  0  0  0
   -1.2625    1.7208    0.0000 C   0  0  0  0  0  0  0  0  0  0  0  0
    0.1000    3.2833    0.0000 C   0  0  0  0  0  0  0  0  0  0  0  0
    0.7667    2.1125    0.0000 C   0  0  0  0  0  0  0  0  0  0  0  0
   -1.9333    2.8958    0.0000 C   0  0  0  0  0  0  0  0  0  0  0  0
   -2.5958    1.7208    0.0000 C   0  0  0  0  0  0  0  0  0  0  0  0
   -0.5958    2.1125    0.0000 C   0  0  0  0  0  0  0  0  0  0  0  0
    0.1000    1.7208    0.0000 C   0  0  0  0  0  0  0  0  0  0  0  0
   -0.5958    2.8958    0.0000 C   0  0  0  0  0  0  0  0  0  0  0  0
   -3.2458    4.4375    0.0000 O   0  0  0  0  0  0  0  0  0  0  0  0
   -4.5958    2.8958    0.0000 C   0  0  0  0  0  0  0  0  0  0  0  0
   -4.5958    4.4292    0.0000 C   0  0  0  0  0  0  0  0  0  0  0  0
   -3.2458    5.2292    0.0000 C   0  0  0  0  0  0  0  0  0  0  0  0
   -5.2708    3.2708    0.0000 C   0  0  0  0  0  0  0  0  0  0  0  0
   -5.2708    4.0417    0.0000 C   0  0  0  0  0  0  0  0  0  0  0  0
  2  6  1  0  0  0  0
  3  2  1  0  0  0  0
  4 12  1  0  0  0  0
  5  1  1  0  0  0  0
  6 16  1  0  0  0  0
  7 15  1  0  0  0  0
  8  3  2  0  0  0  0
  9  1  1  0  0  0  0
 10  1  1  0  0  0  0
 11  1  1  0  0  0  0
 12 17  1  0  0  0  0
 13  5  2  0  0  0  0
 14  5  1  0  0  0  0
 15  4  1  0  0  0  0
 16  4  1  0  0  0  0
 17 18  1  0  0  0  0
 18 14  2  0  0  0  0
 19 13  1  0  0  0  0
 20  8  1  0  0  0  0
 21  3  1  0  0  0  0
 22  8  1  0  0  0  0
 23 20  1  0  0  0  0
 24 21  2  0  0  0  0
 25 24  1  0  0  0  0
 17 19  2  0  0  0  0
  7  2  1  0  0  0  0
 25 22  2  0  0  0  0
M  END
>  <ID> (5260463)
5260463

>  <Supplier> (5260463)
ChemBridge

>  <clogP> (5260463)
4.220000000000000e+000

>  <RB> (5260463)
3

>  <tPSA> (5260463)
1.571000000000000e+001

>  <Hacc> (5260463)
2

>  <Hdon> (5260463)
0

>  <LogSw> (5260463)
-4.351000000000000e+000

>  <Group> (5260463)
1

>  <Core> (5260463)
162

$$$$
7270501
  -ISIS-  03310818262D

 20 21  0  0  0  0  0  0  0  0999 V2000
   -2.5708    5.4792    0.0000 C   0  0  0  0  0  0  0  0  0  0  0  0
   -1.0333    2.8458    0.0000 C   0  0  0  0  0  0  0  0  0  0  0  0
   -5.6333    5.4792    0.0000 N   0  0  0  0  0  0  0  0  0  0  0  0
   -7.1667    8.1167    0.0000 C   0  0  0  0  0  0  0  0  0  0  0  0
  -10.1542    8.1167    0.0000 C   0  0  0  0  0  0  0  0  0  0  0  0
  -11.6875   10.7292    0.0000 C   0  0  0  0  0  0  0  0  0  0  0  0
   -1.0333    8.1292    0.0000 O   0  0  0  0  0  0  0  0  0  0  0  0
    1.9500    2.8833    0.0000 C   0  0  0  0  0  0  0  0  0  0  0  0
   -5.6000   10.7542    0.0000 C   0  0  0  0  0  0  0  0  0  0  0  0
  -10.1542   13.3292    0.0000 C   0  0  0  0  0  0  0  0  0  0  0  0
  -11.7167    5.4542    0.0000 F   0  0  0  0  0  0  0  0  0  0  0  0
   -7.1375   13.3875    0.0000 C   0  0  0  0  0  0  0  0  0  0  0  0
  -11.7500   16.0000    0.0000 Br  0  0  0  0  0  0  0  0  0  0  0  0
   -2.4958    0.4208    0.0000 C   0  0  0  0  0  0  0  0  0  0  0  0
    3.4875    5.3292    0.0000 O   0  0  0  0  0  0  0  0  0  0  0  0
    3.3375    0.3833    0.0000 C   0  0  0  0  0  0  0  0  0  0  0  0
    6.4500    5.2167    0.0000 C   0  0  0  0  0  0  0  0  0  0  0  0
   -0.9625   -2.1792    0.0000 C   0  0  0  0  0  0  0  0  0  0  0  0
    8.0167    7.6375    0.0000 C   0  0  0  0  0  0  0  0  0  0  0  0
    1.8000   -2.1500    0.0000 C   0  0  0  0  0  0  0  0  0  0  0  0
  2  1  1  0  0  0  0
  3  1  1  0  0  0  0
  4  3  1  0  0  0  0
  5  4  1  0  0  0  0
  6  5  2  0  0  0  0
  7  1  2  0  0  0  0
  8  2  1  0  0  0  0
  9  4  2  0  0  0  0
 10 12  2  0  0  0  0
 11  5  1  0  0  0  0
 12  9  1  0  0  0  0
 13 10  1  0  0  0  0
 14  2  2  0  0  0  0
 15  8  1  0  0  0  0
 16  8  2  0  0  0  0
 17 15  1  0  0  0  0
 18 14  1  0  0  0  0
 19 17  1  0  0  0  0
 20 18  2  0  0  0  0
 20 16  1  0  0  0  0
 10  6  1  0  0  0  0
M  END
>  <ID> (7270501)
7270501

>  <Supplier> (7270501)
ChemBridge

>  <clogP> (7270501)
3.950000000000000e+000

>  <RB> (7270501)
2

>  <tPSA> (7270501)
3.833000000000000e+001

>  <Hacc> (7270501)
2

>  <Hdon> (7270501)
1

>  <LogSw> (7270501)
-5.039000000000002e+000

>  <Group> (7270501)
2

>  <Core> (7270501)
511

$$$$
7581230
  -ISIS-  03310818262D

 28 30  0  0  0  0  0  0  0  0999 V2000
    4.7667   -3.2750    0.0000 S   0  0  3  0  0  0  0  0  0  0  0  0
    7.6125   -4.1500    0.0000 N   0  0  3  0  0  0  0  0  0  0  0  0
    6.8917   -3.7292    0.0000 C   0  0  0  0  0  0  0  0  0  0  0  0
    5.4625   -3.7292    0.0000 N   0  0  0  0  0  0  0  0  0  0  0  0
    9.0500   -4.9917    0.0000 N   0  0  3  0  0  0  0  0  0  0  0  0
    6.1750   -4.1417    0.0000 C   0  0  0  0  0  0  0  0  0  0  0  0
    4.0667   -2.8250    0.0000 C   0  0  0  0  0  0  0  0  0  0  0  0
    5.2167   -2.5750    0.0000 O   0  0  0  0  0  0  0  0  0  0  0  0
    4.3125   -3.9667    0.0000 O   0  0  0  0  0  0  0  0  0  0  0  0
    9.7625   -5.4125    0.0000 C   0  0  0  0  0  0  0  0  0  0  0  0
    8.3417   -3.7375    0.0000 C   0  0  0  0  0  0  0  0  0  0  0  0
    7.6042   -4.9875    0.0000 C   0  0  0  0  0  0  0  0  0  0  0  0
    9.0625   -4.1625    0.0000 C   0  0  0  0  0  0  0  0  0  0  0  0
    8.3250   -5.4125    0.0000 C   0  0  0  0  0  0  0  0  0  0  0  0
    6.9000   -2.9042    0.0000 O   0  0  0  0  0  0  0  0  0  0  0  0
    3.3375   -3.2042    0.0000 C   0  0  0  0  0  0  0  0  0  0  0  0
    4.1042   -1.9917    0.0000 C   0  0  0  0  0  0  0  0  0  0  0  0
    9.7542   -6.2417    0.0000 C   0  0  0  0  0  0  0  0  0  0  0  0
   10.4750   -5.0000    0.0000 C   0  0  0  0  0  0  0  0  0  0  0  0
   11.1875   -6.2500    0.0000 C   0  0  0  0  0  0  0  0  0  0  0  0
   11.1875   -5.4167    0.0000 C   0  0  0  0  0  0  0  0  0  0  0  0
   10.4542   -6.6542    0.0000 C   0  0  0  0  0  0  0  0  0  0  0  0
    2.6375   -2.7625    0.0000 C   0  0  0  0  0  0  0  0  0  0  0  0
    3.4042   -1.5500    0.0000 C   0  0  0  0  0  0  0  0  0  0  0  0
    2.6750   -1.9292    0.0000 C   0  0  0  0  0  0  0  0  0  0  0  0
   11.9000   -6.6750    0.0000 O   0  0  0  0  0  0  0  0  0  0  0  0
    1.9792   -1.4875    0.0000 C   0  0  0  0  0  0  0  0  0  0  0  0
   12.6125   -6.2625    0.0000 C   0  0  0  0  0  0  0  0  0  0  0  0
  2  3  1  0  0  0  0
  3  6  1  0  0  0  0
  4  1  1  0  0  0  0
  5 14  1  0  0  0  0
  6  4  1  0  0  0  0
  7  1  1  0  0  0  0
  8  1  2  0  0  0  0
  9  1  2  0  0  0  0
 10  5  1  0  0  0  0
 11  2  1  0  0  0  0
 12  2  1  0  0  0  0
 13 11  1  0  0  0  0
 14 12  1  0  0  0  0
 15  3  2  0  0  0  0
 16  7  1  0  0  0  0
 17  7  2  0  0  0  0
 18 10  2  0  0  0  0
 19 10  1  0  0  0  0
 20 21  1  0  0  0  0
 21 19  2  0  0  0  0
 22 18  1  0  0  0  0
 23 16  2  0  0  0  0
 24 17  1  0  0  0  0
 25 24  2  0  0  0  0
 26 20  1  0  0  0  0
 27 25  1  0  0  0  0
 28 26  1  0  0  0  0
 23 25  1  0  0  0  0
 13  5  1  0  0  0  0
 22 20  2  0  0  0  0
M  END
>  <ID> (7581230)
7581230

>  <Supplier> (7581230)
ChemBridge

>  <clogP> (7581230)
2.059000000000000e+000

>  <RB> (7581230)
4

>  <tPSA> (7581230)
7.894999999999997e+001

>  <Hacc> (7581230)
5

>  <Hdon> (7581230)
1

>  <LogSw> (7581230)
-3.733000000000000e+000

>  <Group> (7581230)
3

>  <Core> (7581230)
158

$$$$
5356684
  -ISIS-  03310818222D

 25 27  0  0  0  0  0  0  0  0999 V2000
   -0.0125   -8.1167    0.0000 N   0  3  0  0  0  0  0  0  0  0  0  0
    0.3542   -8.7792    0.0000 C   0  0  0  0  0  0  0  0  0  0  0  0
    2.2292   -9.4292    0.0000 C   0  0  0  0  0  0  0  0  0  0  0  0
    2.6042  -10.0792    0.0000 N   0  0  3  0  0  0  0  0  0  0  0  0
    1.1042   -8.7792    0.0000 C   0  0  0  0  0  0  0  0  0  0  0  0
    1.4792   -9.4292    0.0000 C   0  0  0  0  0  0  0  0  0  0  0  0
    3.3542  -11.3792    0.0000 N   0  0  3  0  0  0  0  0  0  0  0  0
   -0.0125   -9.4292    0.0000 C   0  0  0  0  0  0  0  0  0  0  0  0
    0.3542   -7.4792    0.0000 O   0  5  0  0  0  0  0  0  0  0  0  0
   -0.7625   -8.1167    0.0000 O   0  0  0  0  0  0  0  0  0  0  0  0
    2.6042   -8.7792    0.0000 O   0  0  0  0  0  0  0  0  0  0  0  0
    3.3542  -10.0792    0.0000 C   0  0  0  0  0  0  0  0  0  0  0  0
    2.2292  -10.7292    0.0000 C   0  0  0  0  0  0  0  0  0  0  0  0
    1.1042  -10.0667    0.0000 C   0  0  0  0  0  0  0  0  0  0  0  0
    0.3542  -10.0667    0.0000 C   0  0  0  0  0  0  0  0  0  0  0  0
    3.7292  -12.0292    0.0000 C   0  0  0  0  0  0  0  0  0  0  0  0
    3.7292  -10.7292    0.0000 C   0  0  0  0  0  0  0  0  0  0  0  0
    2.6042  -11.3792    0.0000 C   0  0  0  0  0  0  0  0  0  0  0  0
   -0.7625   -9.4292    0.0000 Cl  0  0  0  0  0  0  0  0  0  0  0  0
    4.4792  -12.0167    0.0000 C   0  0  0  0  0  0  0  0  0  0  0  0
    4.8500  -11.3792    0.0000 C   0  0  0  0  0  0  0  0  0  0  0  0
    4.8542  -12.6667    0.0000 C   0  0  0  0  0  0  0  0  0  0  0  0
    5.6000  -11.3667    0.0000 C   0  0  0  0  0  0  0  0  0  0  0  0
    5.6042  -12.6667    0.0000 C   0  0  0  0  0  0  0  0  0  0  0  0
    5.9792  -12.0167    0.0000 C   0  0  0  0  0  0  0  0  0  0  0  0
  2  1  1  0  0  0  0
  3  6  1  0  0  0  0
  4  3  1  0  0  0  0
  5  2  1  0  0  0  0
  6  5  2  0  0  0  0
  7 18  1  0  0  0  0
  8  2  2  0  0  0  0
  9  1  1  0  0  0  0
 10  1  2  0  0  0  0
 11  3  2  0  0  0  0
 12  4  1  0  0  0  0
 13  4  1  0  0  0  0
 14 15  2  0  0  0  0
 15  8  1  0  0  0  0
 16  7  1  0  0  0  0
 17 12  1  0  0  0  0
 18 13  1  0  0  0  0
 19  8  1  0  0  0  0
 20 16  1  0  0  0  0
 21 20  1  0  0  0  0
 22 20  2  0  0  0  0
 23 21  2  0  0  0  0
 24 22  1  0  0  0  0
 25 24  2  0  0  0  0
 14  6  1  0  0  0  0
 17  7  1  0  0  0  0
 25 23  1  0  0  0  0
M  CHG  2   1   1   9  -1
M  END
>  <ID> (5356684)
5356684

>  <Supplier> (5356684)
ChemBridge

>  <clogP> (5356684)
3.490000000000000e+000

>  <RB> (5356684)
3

>  <tPSA> (5356684)
6.669000000000000e+001

>  <Hacc> (5356684)
4

>  <Hdon> (5356684)
0

>  <LogSw> (5356684)
-5.193999999999998e+000

>  <Group> (5356684)
3

>  <Core> (5356684)
165

$$$$
7964613
  -ISIS-  03310818282D

 24 26  0  0  0  0  0  0  0  0999 V2000
    6.2875    1.5708    0.0000 C   0  0  0  0  0  0  0  0  0  0  0  0
    6.9375    1.9458    0.0000 C   0  0  0  0  0  0  0  0  0  0  0  0
    5.6417    1.9458    0.0000 C   0  0  0  0  0  0  0  0  0  0  0  0
    7.5875    1.5708    0.0000 N   0  0  0  0  0  0  0  0  0  0  0  0
    4.9917    1.5708    0.0000 C   0  0  0  0  0  0  0  0  0  0  0  0
    6.2875    0.8208    0.0000 C   0  0  0  0  0  0  0  0  0  0  0  0
    9.5375    1.9458    0.0000 C   0  0  0  0  0  0  0  0  0  0  0  0
    6.9375    2.6958    0.0000 O   0  0  0  0  0  0  0  0  0  0  0  0
    8.2375    1.9458    0.0000 C   0  0  0  0  0  0  0  0  0  0  0  0
    8.8875    1.5708    0.0000 C   0  0  0  0  0  0  0  0  0  0  0  0
    4.9917    0.8208    0.0000 C   0  0  0  0  0  0  0  0  0  0  0  0
    5.6417    0.4458    0.0000 C   0  0  0  0  0  0  0  0  0  0  0  0
    5.6417    2.6958    0.0000 O   0  0  0  0  0  0  0  0  0  0  0  0
   10.1875    1.5708    0.0000 C   0  0  3  0  0  0  0  0  0  0  0  0
   10.8292    1.9458    0.0000 O   0  0  0  0  0  0  0  0  0  0  0  0
    4.3417    1.9458    0.0000 C   0  0  0  0  0  0  0  0  0  0  0  0
    9.5375    2.6958    0.0000 C   0  0  0  0  0  0  0  0  0  0  0  0
    8.8875    3.0708    0.0000 C   0  0  0  0  0  0  0  0  0  0  0  0
    8.2375    2.6958    0.0000 C   0  0  0  0  0  0  0  0  0  0  0  0
    4.3417    0.4458    0.0000 C   0  0  0  0  0  0  0  0  0  0  0  0
   10.1875    0.8208    0.0000 C   0  0  0  0  0  0  0  0  0  0  0  0
    4.9917    3.0708    0.0000 C   0  0  0  0  0  0  0  0  0  0  0  0
    3.6917    1.5708    0.0000 C   0  0  0  0  0  0  0  0  0  0  0  0
    3.6917    0.8208    0.0000 C   0  0  0  0  0  0  0  0  0  0  0  0
  2  1  1  0  0  0  0
  3  1  2  0  0  0  0
  4  2  1  0  0  0  0
  5  3  1  0  0  0  0
  6  1  1  0  0  0  0
  7 10  2  0  0  0  0
  8  2  2  0  0  0  0
  9  4  1  0  0  0  0
 10  9  1  0  0  0  0
 11 12  1  0  0  0  0
 12  6  2  0  0  0  0
 13  3  1  0  0  0  0
 14  7  1  0  0  0  0
 15 14  1  0  0  0  0
 16  5  1  0  0  0  0
 17 18  2  0  0  0  0
 18 19  1  0  0  0  0
 19  9  2  0  0  0  0
 20 11  1  0  0  0  0
 21 14  1  0  0  0  0
 22 13  1  0  0  0  0
 23 16  2  0  0  0  0
 24 20  2  0  0  0  0
 11  5  2  0  0  0  0
 24 23  1  0  0  0  0
  7 17  1  0  0  0  0
M  END
>  <ID> (7964613)
7964613

>  <Supplier> (7964613)
ChemBridge

>  <clogP> (7964613)
3.226000000000000e+000

>  <RB> (7964613)
3

>  <tPSA> (7964613)
5.856000000000000e+001

>  <Hacc> (7964613)
3

>  <Hdon> (7964613)
2

>  <LogSw> (7964613)
-4.299000000000000e+000

>  <Group> (7964613)
3

>  <Core> (7964613)
511

$$$$
9077064
  -ISIS-  03310818292D

 27 29  0  0  0  0  0  0  0  0999 V2000
    7.0625    2.0833    0.0000 N   0  0  3  0  0  0  0  0  0  0  0  0
    7.5042    2.6833    0.0000 C   0  0  0  0  0  0  0  0  0  0  0  0
    7.0625    3.2958    0.0000 N   0  0  0  0  0  0  0  0  0  0  0  0
    6.3500    2.3083    0.0000 C   0  0  0  0  0  0  0  0  0  0  0  0
    3.1625    1.5958    0.0000 C   0  0  0  0  0  0  0  0  0  0  0  0
    6.3500    3.0583    0.0000 N   0  0  0  0  0  0  0  0  0  0  0  0
    2.4417    1.8250    0.0000 S   0  0  0  0  0  0  0  0  0  0  0  0
    3.1625    0.8458    0.0000 N   0  0  0  0  0  0  0  0  0  0  0  0
    2.4417    0.6125    0.0000 N   0  0  0  0  0  0  0  0  0  0  0  0
    3.7667    2.0333    0.0000 N   0  0  0  0  0  0  0  0  0  0  0  0
    2.0042    1.2208    0.0000 C   0  0  0  0  0  0  0  0  0  0  0  0
    8.2542    2.6833    0.0000 C   0  0  0  0  0  0  0  0  0  0  0  0
    5.7417    1.8708    0.0000 S   0  0  0  0  0  0  0  0  0  0  0  0
    7.2917    1.3625    0.0000 C   0  0  0  0  0  0  0  0  0  0  0  0
    4.4542    1.7333    0.0000 C   0  0  0  0  0  0  0  0  0  0  0  0
    9.3792    2.0333    0.0000 N   0  0  0  0  0  0  0  0  0  0  0  0
    4.5292    0.9833    0.0000 O   0  0  0  0  0  0  0  0  0  0  0  0
    5.0542    2.1708    0.0000 C   0  0  0  0  0  0  0  0  0  0  0  0
    8.6292    2.0333    0.0000 C   0  0  0  0  0  0  0  0  0  0  0  0
    8.6292    3.3333    0.0000 C   0  0  0  0  0  0  0  0  0  0  0  0
    1.2542    1.2208    0.0000 C   0  0  0  0  0  0  0  0  0  0  0  0
    6.7917    0.8083    0.0000 C   0  0  3  0  0  0  0  0  0  0  0  0
    9.7542    2.6833    0.0000 C   0  0  0  0  0  0  0  0  0  0  0  0
    9.3792    3.3333    0.0000 C   0  0  0  0  0  0  0  0  0  0  0  0
    7.0250    0.0958    0.0000 C   0  0  0  0  0  0  0  0  0  0  0  0
    6.0625    0.9583    0.0000 C   0  0  0  0  0  0  0  0  0  0  0  0
    0.8792    0.5708    0.0000 C   0  0  0  0  0  0  0  0  0  0  0  0
  2  1  1  0  0  0  0
  3  2  2  0  0  0  0
  4  1  1  0  0  0  0
  5 10  1  0  0  0  0
  6  4  2  0  0  0  0
  7  5  1  0  0  0  0
  8  5  2  0  0  0  0
  9  8  1  0  0  0  0
 10 15  1  0  0  0  0
 11  7  1  0  0  0  0
 12  2  1  0  0  0  0
 13  4  1  0  0  0  0
 14  1  1  0  0  0  0
 15 18  1  0  0  0  0
 16 19  1  0  0  0  0
 17 15  2  0  0  0  0
 18 13  1  0  0  0  0
 19 12  2  0  0  0  0
 20 12  1  0  0  0  0
 21 11  1  0  0  0  0
 22 14  1  0  0  0  0
 23 24  1  0  0  0  0
 24 20  2  0  0  0  0
 25 22  1  0  0  0  0
 26 22  1  0  0  0  0
 27 21  1  0  0  0  0
  3  6  1  0  0  0  0
 23 16  2  0  0  0  0
 11  9  2  0  0  0  0
M  END
>  <ID> (9077064)
9077064

>  <Supplier> (9077064)
ChemBridge

>  <clogP> (9077064)
1.693000000000000e+000

>  <RB> (9077064)
6

>  <tPSA> (9077064)
9.848000000000000e+001

>  <Hacc> (9077064)
6

>  <Hdon> (9077064)
1

>  <LogSw> (9077064)
-3.587000000000000e+000

>  <Group> (9077064)
2

>  <Core> (9077064)
551

$$$$
5760059
  -ISIS-  03310818222D

 34 38  0  0  0  0  0  0  0  0999 V2000
    0.6375    0.8458    0.0000 N   0  0  3  0  0  0  0  0  0  0  0  0
    0.3167    0.3000    0.0000 C   0  0  0  0  0  0  0  0  0  0  0  0
    1.2000    0.7333    0.0000 C   0  0  0  0  0  0  0  0  0  0  0  0
    0.7500   -0.0875    0.0000 C   0  0  3  0  0  0  0  0  0  0  0  0
   -0.0125   -0.8042    0.0000 C   0  0  0  0  0  0  0  0  0  0  0  0
    1.2667    0.1458    0.0000 C   0  0  0  0  0  0  0  0  0  0  0  0
    0.5542   -0.6500    0.0000 N   0  0  3  0  0  0  0  0  0  0  0  0
   -0.4125   -0.3667    0.0000 N   0  0  0  0  0  0  0  0  0  0  0  0
    0.4375    1.4000    0.0000 C   0  0  0  0  0  0  0  0  0  0  0  0
    2.3167   -0.2375    0.0000 C   0  0  0  0  0  0  0  0  0  0  0  0
   -0.1958   -1.3667    0.0000 S   0  0  0  0  0  0  0  0  0  0  0  0
   -0.2625    0.2208    0.0000 O   0  0  0  0  0  0  0  0  0  0  0  0
    0.9667   -1.0875    0.0000 C   0  0  0  0  0  0  0  0  0  0  0  0
    1.6167    1.1833    0.0000 O   0  0  0  0  0  0  0  0  0  0  0  0
    2.7500   -0.6667    0.0000 C   0  0  0  0  0  0  0  0  0  0  0  0
    2.6042    0.2958    0.0000 O   0  0  0  0  0  0  0  0  0  0  0  0
    3.3000   -0.4000    0.0000 O   0  0  0  0  0  0  0  0  0  0  0  0
    3.2042    0.1500    0.0000 C   0  0  0  0  0  0  0  0  0  0  0  0
    1.7375   -0.3792    0.0000 C   0  0  0  0  0  0  0  0  0  0  0  0
    1.5500   -0.9500    0.0000 C   0  0  0  0  0  0  0  0  0  0  0  0
   -0.1458    1.5000    0.0000 C   0  0  0  0  0  0  0  0  0  0  0  0
    0.8000    1.8708    0.0000 C   0  0  0  0  0  0  0  0  0  0  0  0
    2.6000   -1.2500    0.0000 C   0  0  0  0  0  0  0  0  0  0  0  0
   -1.0000   -0.5042    0.0000 C   0  0  0  0  0  0  0  0  0  0  0  0
   -0.0125    2.5208    0.0000 C   0  0  0  0  0  0  0  0  0  0  0  0
    2.0292   -1.3875    0.0000 C   0  0  0  0  0  0  0  0  0  0  0  0
    0.5875    2.4125    0.0000 C   0  0  0  0  0  0  0  0  0  0  0  0
   -0.3625    2.0458    0.0000 C   0  0  0  0  0  0  0  0  0  0  0  0
   -0.2458    3.0500    0.0000 F   0  0  0  0  0  0  0  0  0  0  0  0
   -1.4125   -0.0667    0.0000 C   0  0  0  0  0  0  0  0  0  0  0  0
   -1.1708   -1.0792    0.0000 C   0  0  0  0  0  0  0  0  0  0  0  0
   -1.7708   -1.2042    0.0000 C   0  0  0  0  0  0  0  0  0  0  0  0
   -2.0000   -0.2167    0.0000 C   0  0  0  0  0  0  0  0  0  0  0  0
   -2.1625   -0.7792    0.0000 C   0  0  0  0  0  0  0  0  0  0  0  0
  2  1  1  0  0  0  0
  3  1  1  0  0  0  0
  4  2  1  0  0  0  0
  5  7  1  0  0  0  0
  6  3  1  0  0  0  0
  7  4  1  0  0  0  0
  8  5  1  0  0  0  0
  9  1  1  0  0  0  0
 10 19  1  0  0  0  0
 11  5  2  0  0  0  0
 12  2  2  0  0  0  0
 13  7  1  0  0  0  0
 14  3  2  0  0  0  0
 15 23  1  0  0  0  0
 16 10  1  0  0  0  0
 17 15  1  0  0  0  0
 18 16  1  0  0  0  0
 19 20  2  0  0  0  0
 20 13  1  0  0  0  0
 21  9  1  0  0  0  0
 22  9  2  0  0  0  0
 23 26  2  0  0  0  0
 24  8  1  0  0  0  0
 25 27  2  0  0  0  0
 26 20  1  0  0  0  0
 27 22  1  0  0  0  0
 28 21  2  0  0  0  0
 29 25  1  0  0  0  0
 30 24  2  0  0  0  0
 31 24  1  0  0  0  0
 32 31  2  0  0  0  0
 33 30  1  0  0  0  0
 34 32  1  0  0  0  0
  4  6  1  0  0  0  0
 25 28  1  0  0  0  0
 15 10  2  0  0  0  0
 17 18  1  0  0  0  0
 33 34  2  0  0  0  0
M  END
>  <ID> (5760059)
5760059

>  <Supplier> (5760059)
ChemBridge

>  <clogP> (5760059)
3.470000000000000e+000

>  <RB> (5760059)
5

>  <tPSA> (5760059)
7.111000000000000e+001

>  <Hacc> (5760059)
4

>  <Hdon> (5760059)
1

>  <LogSw> (5760059)
-5.643999999999998e+000

>  <Group> (5760059)
2

>  <Core> (5760059)
126

$$$$
6552912
  -ISIS-  03310818242D

 33 36  0  0  0  0  0  0  0  0999 V2000
    0.7375   -2.2292    0.0000 N   0  0  0  0  0  0  0  0  0  0  0  0
    2.4000   -2.2292    0.0000 N   0  0  3  0  0  0  0  0  0  0  0  0
    1.5667   -0.7542    0.0000 C   0  0  0  0  0  0  0  0  0  0  0  0
    0.7375   -1.2625    0.0000 C   0  0  0  0  0  0  0  0  0  0  0  0
    2.4000   -1.2625    0.0000 C   0  0  0  0  0  0  0  0  0  0  0  0
    1.5667    0.2458    0.0000 C   0  0  0  0  0  0  0  0  0  0  0  0
    3.2917    0.2458    0.0000 C   0  0  0  0  0  0  0  0  0  0  0  0
    5.1542    0.2833    0.0000 C   0  0  0  0  0  0  0  0  0  0  0  0
    2.4292    0.7458    0.0000 C   0  0  0  0  0  0  0  0  0  0  0  0
    4.2875    0.7875    0.0000 O   0  0  0  0  0  0  0  0  0  0  0  0
    6.0292    0.7833    0.0000 C   0  0  0  0  0  0  0  0  0  0  0  0
   -0.1000   -0.7792    0.0000 C   0  0  0  0  0  0  0  0  0  0  0  0
    3.0792   -2.9125    0.0000 C   0  0  0  0  0  0  0  0  0  0  0  0
    6.8917    0.2833    0.0000 C   0  0  0  0  0  0  0  0  0  0  0  0
    3.2917   -0.7500    0.0000 O   0  0  0  0  0  0  0  0  0  0  0  0
    5.1542   -0.7167    0.0000 C   0  0  0  0  0  0  0  0  0  0  0  0
   -0.9375   -1.2667    0.0000 C   0  0  0  0  0  0  0  0  0  0  0  0
   -0.1083    0.1875    0.0000 C   0  0  0  0  0  0  0  0  0  0  0  0
    7.7625   -2.2292    0.0000 O   0  0  0  0  0  0  0  0  0  0  0  0
    6.8917   -0.7167    0.0000 C   0  0  0  0  0  0  0  0  0  0  0  0
    7.7667   -1.2250    0.0000 C   0  0  0  0  0  0  0  0  0  0  0  0
   -1.7833    0.1833    0.0000 C   0  0  0  0  0  0  0  0  0  0  0  0
    6.0250   -1.2250    0.0000 C   0  0  0  0  0  0  0  0  0  0  0  0
    6.0292    1.7875    0.0000 O   0  0  0  0  0  0  0  0  0  0  0  0
   -1.7833   -0.7875    0.0000 C   0  0  0  0  0  0  0  0  0  0  0  0
   -0.9458    0.6708    0.0000 C   0  0  0  0  0  0  0  0  0  0  0  0
   -2.6500    0.6833    0.0000 F   0  0  0  0  0  0  0  0  0  0  0  0
    4.0167   -2.6625    0.0000 C   0  0  0  0  0  0  0  0  0  0  0  0
    2.8292   -3.8417    0.0000 C   0  0  0  0  0  0  0  0  0  0  0  0
    6.9000    2.2958    0.0000 C   0  0  0  0  0  0  0  0  0  0  0  0
    4.7000   -3.3417    0.0000 C   0  0  0  0  0  0  0  0  0  0  0  0
    3.5167   -4.5292    0.0000 C   0  0  0  0  0  0  0  0  0  0  0  0
    4.4500   -4.2792    0.0000 C   0  0  0  0  0  0  0  0  0  0  0  0
  2  1  1  0  0  0  0
  3  4  1  0  0  0  0
  4  1  2  0  0  0  0
  5  2  1  0  0  0  0
  6  3  1  0  0  0  0
  7  9  1  0  0  0  0
  8 10  1  0  0  0  0
  9  6  2  0  0  0  0
 10  7  1  0  0  0  0
 11  8  2  0  0  0  0
 12  4  1  0  0  0  0
 13  2  1  0  0  0  0
 14 11  1  0  0  0  0
 15  7  2  0  0  0  0
 16  8  1  0  0  0  0
 17 12  2  0  0  0  0
 18 12  1  0  0  0  0
 19 21  2  0  0  0  0
 20 23  1  0  0  0  0
 21 20  1  0  0  0  0
 22 26  1  0  0  0  0
 23 16  2  0  0  0  0
 24 11  1  0  0  0  0
 25 17  1  0  0  0  0
 26 18  2  0  0  0  0
 27 22  1  0  0  0  0
 28 13  2  0  0  0  0
 29 13  1  0  0  0  0
 30 24  1  0  0  0  0
 31 28  1  0  0  0  0
 32 29  2  0  0  0  0
 33 32  1  0  0  0  0
  5  3  2  0  0  0  0
 22 25  2  0  0  0  0
 33 31  2  0  0  0  0
 20 14  2  0  0  0  0
M  END
>  <ID> (6552912)
6552912

>  <Supplier> (6552912)
ChemBridge

>  <clogP> (6552912)
6.180000000000000e+000

>  <RB> (6552912)
7

>  <tPSA> (6552912)
7.042000000000000e+001

>  <Hacc> (6552912)
6

>  <Hdon> (6552912)
0

>  <LogSw> (6552912)
-7.703000000000000e+000

>  <Group> (6552912)
1

$$$$
9077065
  -ISIS-  03310818292D

 25 27  0  0  0  0  0  0  0  0999 V2000
    7.8042    1.3458    0.0000 N   0  0  3  0  0  0  0  0  0  0  0  0
    2.5542    2.6458    0.0000 C   0  0  0  0  0  0  0  0  0  0  0  0
    7.0542    1.3458    0.0000 C   0  0  0  0  0  0  0  0  0  0  0  0
    2.1792    1.9958    0.0000 C   0  0  0  0  0  0  0  0  0  0  0  0
    3.3042    2.6458    0.0000 C   0  0  0  0  0  0  0  0  0  0  0  0
    4.8042    1.3458    0.0000 N   0  0  0  0  0  0  0  0  0  0  0  0
    9.3042    1.3458    0.0000 O   0  0  0  0  0  0  0  0  0  0  0  0
    6.6792    1.9958    0.0000 C   0  0  0  0  0  0  0  0  0  0  0  0
    6.6792    0.6958    0.0000 C   0  0  0  0  0  0  0  0  0  0  0  0
    2.5542    1.3458    0.0000 C   0  0  0  0  0  0  0  0  0  0  0  0
    5.5542    1.3458    0.0000 C   0  0  0  0  0  0  0  0  0  0  0  0
    3.6792    1.9958    0.0000 C   0  0  0  0  0  0  0  0  0  0  0  0
    4.4292    1.9958    0.0000 C   0  0  0  0  0  0  0  0  0  0  0  0
    5.9292    1.9958    0.0000 C   0  0  0  0  0  0  0  0  0  0  0  0
    5.9292    0.6958    0.0000 C   0  0  0  0  0  0  0  0  0  0  0  0
    3.3042    1.3458    0.0000 C   0  0  0  0  0  0  0  0  0  0  0  0
    2.1792    3.2958    0.0000 O   0  0  0  0  0  0  0  0  0  0  0  0
    1.4292    1.9958    0.0000 O   0  0  0  0  0  0  0  0  0  0  0  0
    8.1792    1.9958    0.0000 C   0  0  0  0  0  0  0  0  0  0  0  0
    8.1792    0.6958    0.0000 C   0  0  0  0  0  0  0  0  0  0  0  0
    8.9292    0.6958    0.0000 C   0  0  0  0  0  0  0  0  0  0  0  0
    8.9292    1.9958    0.0000 C   0  0  0  0  0  0  0  0  0  0  0  0
    1.0542    1.3458    0.0000 C   0  0  0  0  0  0  0  0  0  0  0  0
    2.5542    3.9458    0.0000 C   0  0  0  0  0  0  0  0  0  0  0  0
    0.3042    1.3458    0.0000 C   0  0  0  0  0  0  0  0  0  0  0  0
  2  5  1  0  0  0  0
  3  1  1  0  0  0  0
  4 10  1  0  0  0  0
  5 12  2  0  0  0  0
  6 11  1  0  0  0  0
  7 21  1  0  0  0  0
  8  3  2  0  0  0  0
  9  3  1  0  0  0  0
 10 16  2  0  0  0  0
 11 15  1  0  0  0  0
 12 13  1  0  0  0  0
 13  6  1  0  0  0  0
 14  8  1  0  0  0  0
 15  9  2  0  0  0  0
 16 12  1  0  0  0  0
 17  2  1  0  0  0  0
 18  4  1  0  0  0  0
 19  1  1  0  0  0  0
 20  1  1  0  0  0  0
 21 20  1  0  0  0  0
 22 19  1  0  0  0  0
 23 18  1  0  0  0  0
 24 17  1  0  0  0  0
 25 23  1  0  0  0  0
  7 22  1  0  0  0  0
 11 14  2  0  0  0  0
  4  2  2  0  0  0  0
M  END
>  <ID> (9077065)
9077065

>  <Supplier> (9077065)
ChemBridge

>  <clogP> (9077065)
3.096000000000000e+000

>  <RB> (9077065)
4

>  <tPSA> (9077065)
4.296000000000000e+001

>  <Hacc> (9077065)
3

>  <Hdon> (9077065)
1

>  <LogSw> (9077065)
-4.341000000000000e+000

>  <Group> (9077065)
2

>  <Core> (9077065)
450

$$$$
9073729
  -ISIS-  03310818292D

 21 22  0  0  0  0  0  0  0  0999 V2000
    5.7500    1.4125    0.0000 S   0  0  3  0  0  0  0  0  0  0  0  0
    5.0000    1.4125    0.0000 N   0  0  3  0  0  0  0  0  0  0  0  0
    2.7500    1.4125    0.0000 C   0  0  0  0  0  0  0  0  0  0  0  0
    2.3750    2.0625    0.0000 N   0  0  0  0  0  0  0  0  0  0  0  0
    1.6250    2.0625    0.0000 C   0  0  0  0  0  0  0  0  0  0  0  0
    5.6875    0.6708    0.0000 O   0  0  0  0  0  0  0  0  0  0  0  0
    6.4917    1.2833    0.0000 O   0  0  0  0  0  0  0  0  0  0  0  0
    3.5000    1.4125    0.0000 C   0  0  3  0  0  0  0  0  0  0  0  0
    4.6250    0.7625    0.0000 C   0  0  0  0  0  0  0  0  0  0  0  0
    4.6250    2.0625    0.0000 C   0  0  0  0  0  0  0  0  0  0  0  0
    2.3750    0.7625    0.0000 O   0  0  0  0  0  0  0  0  0  0  0  0
    1.2500    2.7125    0.0000 C   0  0  0  0  0  0  0  0  0  0  0  0
    3.8750    0.7625    0.0000 C   0  0  0  0  0  0  0  0  0  0  0  0
    3.8750    2.0625    0.0000 C   0  0  0  0  0  0  0  0  0  0  0  0
    5.9417    2.1458    0.0000 C   0  0  0  0  0  0  0  0  0  0  0  0
    1.2500    1.4125    0.0000 C   0  0  0  0  0  0  0  0  0  0  0  0
    1.6250    3.3625    0.0000 C   0  0  0  0  0  0  0  0  0  0  0  0
    0.5000    2.7125    0.0000 C   0  0  0  0  0  0  0  0  0  0  0  0
    6.6667    2.3333    0.0000 C   0  0  0  0  0  0  0  0  0  0  0  0
    0.5000    1.4125    0.0000 C   0  0  0  0  0  0  0  0  0  0  0  0
    0.1250    2.0625    0.0000 C   0  0  0  0  0  0  0  0  0  0  0  0
  2  1  1  0  0  0  0
  3  8  1  0  0  0  0
  4  3  1  0  0  0  0
  5  4  1  0  0  0  0
  6  1  2  0  0  0  0
  7  1  2  0  0  0  0
  8 14  1  0  0  0  0
  9  2  1  0  0  0  0
 10  2  1  0  0  0  0
 11  3  2  0  0  0  0
 12  5  2  0  0  0  0
 13  9  1  0  0  0  0
 14 10  1  0  0  0  0
 15  1  1  0  0  0  0
 16  5  1  0  0  0  0
 17 12  1  0  0  0  0
 18 12  1  0  0  0  0
 19 15  1  0  0  0  0
 20 16  2  0  0  0  0
 21 20  1  0  0  0  0
 13  8  1  0  0  0  0
 21 18  2  0  0  0  0
M  END
>  <ID> (9073729)
9073729

>  <Supplier> (9073729)
ChemBridge

>  <clogP> (9073729)
7.970000000000000e-001

>  <RB> (9073729)
2

>  <tPSA> (9073729)
6.647999999999998e+001

>  <Hacc> (9073729)
4

>  <Hdon> (9073729)
1

>  <LogSw> (9073729)
-2.144000000000000e+000

>  <Group> (9073729)
2

>  <Core> (9073729)
050

$$$$
9073728
  -ISIS-  03310818292D

 24 26  0  0  0  0  0  0  0  0999 V2000
    4.9000    3.5333    0.0000 C   0  0  0  0  0  0  0  0  0  0  0  0
    5.5042    3.9833    0.0000 N   0  0  3  0  0  0  0  0  0  0  0  0
    4.2917    3.9833    0.0000 N   0  0  0  0  0  0  0  0  0  0  0  0
    4.5250    4.6792    0.0000 N   0  0  0  0  0  0  0  0  0  0  0  0
    5.2750    4.6792    0.0000 N   0  0  0  0  0  0  0  0  0  0  0  0
    4.9000    2.7833    0.0000 N   0  0  0  0  0  0  0  0  0  0  0  0
    4.2542    1.6583    0.0000 C   0  0  0  0  0  0  0  0  0  0  0  0
    4.2542    2.4083    0.0000 C   0  0  0  0  0  0  0  0  0  0  0  0
    3.6042    1.2833    0.0000 C   0  0  0  0  0  0  0  0  0  0  0  0
    2.9542    1.6583    0.0000 O   0  0  0  0  0  0  0  0  0  0  0  0
    6.2167    3.7458    0.0000 C   0  0  0  0  0  0  0  0  0  0  0  0
    2.3042    1.2833    0.0000 C   0  0  0  0  0  0  0  0  0  0  0  0
    1.6542    1.6583    0.0000 C   0  0  0  0  0  0  0  0  0  0  0  0
    0.3542    2.4083    0.0000 C   0  0  0  0  0  0  0  0  0  0  0  0
    1.0042    1.2833    0.0000 C   0  0  0  0  0  0  0  0  0  0  0  0
    1.6542    2.4083    0.0000 C   0  0  0  0  0  0  0  0  0  0  0  0
    1.0042    2.7833    0.0000 C   0  0  0  0  0  0  0  0  0  0  0  0
    0.3542    1.6583    0.0000 C   0  0  0  0  0  0  0  0  0  0  0  0
    4.9000    1.2833    0.0000 C   0  0  0  0  0  0  0  0  0  0  0  0
    3.6042    0.5333    0.0000 C   0  0  0  0  0  0  0  0  0  0  0  0
   -0.2958    2.7833    0.0000 C   0  0  0  0  0  0  0  0  0  0  0  0
    6.7792    4.2417    0.0000 C   0  0  0  0  0  0  0  0  0  0  0  0
    4.9000    0.5333    0.0000 C   0  0  0  0  0  0  0  0  0  0  0  0
    4.2542    0.1583    0.0000 C   0  0  0  0  0  0  0  0  0  0  0  0
  2  1  1  0  0  0  0
  3  1  2  0  0  0  0
  4  3  1  0  0  0  0
  5  2  1  0  0  0  0
  6  1  1  0  0  0  0
  7  8  1  0  0  0  0
  8  6  1  0  0  0  0
  9  7  1  0  0  0  0
 10  9  1  0  0  0  0
 11  2  1  0  0  0  0
 12 10  1  0  0  0  0
 13 12  1  0  0  0  0
 14 17  2  0  0  0  0
 15 13  1  0  0  0  0
 16 13  2  0  0  0  0
 17 16  1  0  0  0  0
 18 15  2  0  0  0  0
 19  7  2  0  0  0  0
 20  9  2  0  0  0  0
 21 14  1  0  0  0  0
 22 11  1  0  0  0  0
 23 19  1  0  0  0  0
 24 23  2  0  0  0  0
  5  4  2  0  0  0  0
 20 24  1  0  0  0  0
 18 14  1  0  0  0  0
M  END
>  <ID> (9073728)
9073728

>  <Supplier> (9073728)
ChemBridge

>  <clogP> (9073728)
4.319000000000000e+000

>  <RB> (9073728)
6

>  <tPSA> (9073728)
6.486000000000001e+001

>  <Hacc> (9073728)
4

>  <Hdon> (9073728)
1

>  <LogSw> (9073728)
-5.247000000000000e+000

>  <Group> (9073728)
2

$$$$
9060854
  -ISIS-  03310818282D

 20 22  0  0  0  0  0  0  0  0999 V2000
    4.8417    2.1458    0.0000 C   0  0  0  0  0  0  0  0  0  0  0  0
    4.8417    1.3958    0.0000 C   0  0  0  0  0  0  0  0  0  0  0  0
    4.1917    1.0208    0.0000 N   0  0  0  0  0  0  0  0  0  0  0  0
    5.4917    2.5208    0.0000 C   0  0  0  0  0  0  0  0  0  0  0  0
    3.5417    1.3958    0.0000 C   0  0  0  0  0  0  0  0  0  0  0  0
    3.5417    2.1458    0.0000 N   0  0  0  0  0  0  0  0  0  0  0  0
    4.1917    2.5208    0.0000 C   0  0  0  0  0  0  0  0  0  0  0  0
    6.1375    1.3958    0.0000 C   0  0  3  0  0  0  0  0  0  0  0  0
    5.4917    1.0208    0.0000 C   0  0  0  0  0  0  0  0  0  0  0  0
    6.1375    2.1458    0.0000 C   0  0  0  0  0  0  0  0  0  0  0  0
    1.5917    1.0208    0.0000 C   0  0  0  0  0  0  0  0  0  0  0  0
    0.9042    1.3250    0.0000 O   0  0  0  0  0  0  0  0  0  0  0  0
    2.8917    1.0208    0.0000 N   0  0  0  0  0  0  0  0  0  0  0  0
    5.4917    3.2708    0.0000 O   0  0  0  0  0  0  0  0  0  0  0  0
    1.5125    0.2708    0.0000 C   0  0  0  0  0  0  0  0  0  0  0  0
    0.4042    0.7708    0.0000 C   0  0  0  0  0  0  0  0  0  0  0  0
    0.7792    0.1208    0.0000 C   0  0  0  0  0  0  0  0  0  0  0  0
    2.2417    1.3958    0.0000 C   0  0  0  0  0  0  0  0  0  0  0  0
    6.3917    0.6875    0.0000 C   0  0  0  0  0  0  0  0  0  0  0  0
    6.8792    1.5250    0.0000 C   0  0  0  0  0  0  0  0  0  0  0  0
  2  1  1  0  0  0  0
  3  2  2  0  0  0  0
  4  1  1  0  0  0  0
  5  6  2  0  0  0  0
  6  7  1  0  0  0  0
  7  1  2  0  0  0  0
  8 10  1  0  0  0  0
  9  2  1  0  0  0  0
 10  4  1  0  0  0  0
 11 18  1  0  0  0  0
 12 11  1  0  0  0  0
 13  5  1  0  0  0  0
 14  4  2  0  0  0  0
 15 11  2  0  0  0  0
 16 12  1  0  0  0  0
 17 15  1  0  0  0  0
 18 13  1  0  0  0  0
 19  8  1  0  0  0  0
 20  8  1  0  0  0  0
  8  9  1  0  0  0  0
  5  3  1  0  0  0  0
 17 16  2  0  0  0  0
M  END
>  <ID> (9060854)
9060854

>  <Supplier> (9060854)
ChemBridge

>  <clogP> (9060854)
2.561000000000000e+000

>  <RB> (9060854)
3

>  <tPSA> (9060854)
6.802000000000000e+001

>  <Hacc> (9060854)
4

>  <Hdon> (9060854)
1

>  <LogSw> (9060854)
-3.470000000000000e+000

>  <Group> (9060854)
2

>  <Core> (9060854)
279

$$$$
9077062
  -ISIS-  03310818292D

 18 18  0  0  0  0  0  0  0  0999 V2000
    2.9792    1.7875    0.0000 C   0  0  0  0  0  0  0  0  0  0  0  0
    3.7292    1.7875    0.0000 C   0  0  0  0  0  0  0  0  0  0  0  0
    4.8542    1.1375    0.0000 C   0  0  0  0  0  0  0  0  0  0  0  0
    4.1042    1.1375    0.0000 C   0  0  0  0  0  0  0  0  0  0  0  0
    5.2292    1.7875    0.0000 C   0  0  0  0  0  0  0  0  0  0  0  0
    2.6042    1.1375    0.0000 O   0  0  0  0  0  0  0  0  0  0  0  0
    4.1042    2.4375    0.0000 C   0  0  0  0  0  0  0  0  0  0  0  0
    4.8542    2.4375    0.0000 C   0  0  0  0  0  0  0  0  0  0  0  0
    2.6042    2.4375    0.0000 N   0  0  0  0  0  0  0  0  0  0  0  0
    5.2292    0.4875    0.0000 Br  0  0  0  0  0  0  0  0  0  0  0  0
    5.9792    1.7875    0.0000 O   0  0  0  0  0  0  0  0  0  0  0  0
    7.4792    3.0875    0.0000 O   0  0  0  0  0  0  0  0  0  0  0  0
    1.8542    2.4375    0.0000 C   0  0  0  0  0  0  0  0  0  0  0  0
    6.3542    2.4375    0.0000 C   0  0  0  0  0  0  0  0  0  0  0  0
    7.1042    2.4375    0.0000 C   0  0  0  0  0  0  0  0  0  0  0  0
    8.2292    3.0875    0.0000 C   0  0  0  0  0  0  0  0  0  0  0  0
    1.4792    3.0875    0.0000 C   0  0  0  0  0  0  0  0  0  0  0  0
    0.7292    3.0875    0.0000 C   0  0  0  0  0  0  0  0  0  0  0  0
  2  1  1  0  0  0  0
  3  4  1  0  0  0  0
  4  2  2  0  0  0  0
  5  8  1  0  0  0  0
  6  1  2  0  0  0  0
  7  2  1  0  0  0  0
  8  7  2  0  0  0  0
  9  1  1  0  0  0  0
 10  3  1  0  0  0  0
 11  5  1  0  0  0  0
 12 15  1  0  0  0  0
 13  9  1  0  0  0  0
 14 11  1  0  0  0  0
 15 14  1  0  0  0  0
 16 12  1  0  0  0  0
 17 13  1  0  0  0  0
 18 17  1  0  0  0  0
  3  5  2  0  0  0  0
M  END
>  <ID> (9077062)
9077062

>  <Supplier> (9077062)
ChemBridge

>  <clogP> (9077062)
2.640000000000000e+000

>  <RB> (9077062)
4

>  <tPSA> (9077062)
4.756000000000000e+001

>  <Hacc> (9077062)
3

>  <Hdon> (9077062)
1

>  <LogSw> (9077062)
-3.760000000000000e+000

>  <Group> (9077062)
3

$$$$
9073727
  -ISIS-  03310818292D

 22 23  0  0  0  0  0  0  0  0999 V2000
    7.0250    1.4625    0.0000 C   0  0  0  0  0  0  0  0  0  0  0  0
    6.2750    1.4625    0.0000 C   0  0  0  0  0  0  0  0  0  0  0  0
    5.9000    2.1125    0.0000 C   0  0  0  0  0  0  0  0  0  0  0  0
    5.1500    2.1125    0.0000 C   0  0  0  0  0  0  0  0  0  0  0  0
    1.7750    2.7708    0.0000 C   0  0  0  0  0  0  0  0  0  0  0  0
    4.0250    1.4625    0.0000 N   0  0  0  0  0  0  0  0  0  0  0  0
    4.7750    1.4625    0.0000 C   0  0  0  0  0  0  0  0  0  0  0  0
    1.4000    2.1125    0.0000 C   0  0  0  0  0  0  0  0  0  0  0  0
    2.5250    2.7708    0.0000 C   0  0  0  0  0  0  0  0  0  0  0  0
    7.4000    0.8125    0.0000 O   0  0  0  0  0  0  0  0  0  0  0  0
    5.9000    0.8125    0.0000 C   0  0  0  0  0  0  0  0  0  0  0  0
    5.1500    0.8125    0.0000 C   0  0  0  0  0  0  0  0  0  0  0  0
    1.7750    1.4625    0.0000 C   0  0  0  0  0  0  0  0  0  0  0  0
    2.9000    2.1125    0.0000 C   0  0  0  0  0  0  0  0  0  0  0  0
    3.6500    2.1125    0.0000 C   0  0  0  0  0  0  0  0  0  0  0  0
    7.4000    2.1125    0.0000 O   0  0  0  0  0  0  0  0  0  0  0  0
    2.5250    1.4625    0.0000 C   0  0  0  0  0  0  0  0  0  0  0  0
    1.4000    3.4208    0.0000 O   0  0  0  0  0  0  0  0  0  0  0  0
    0.6500    2.1125    0.0000 O   0  0  0  0  0  0  0  0  0  0  0  0
    4.7750    2.7708    0.0000 C   0  0  0  0  0  0  0  0  0  0  0  0
    1.7750    4.0542    0.0000 C   0  0  0  0  0  0  0  0  0  0  0  0
    0.2750    1.4625    0.0000 C   0  0  0  0  0  0  0  0  0  0  0  0
  2  1  1  0  0  0  0
  3  2  1  0  0  0  0
  4  3  2  0  0  0  0
  5  9  2  0  0  0  0
  6  7  1  0  0  0  0
  7 12  2  0  0  0  0
  8 13  2  0  0  0  0
  9 14  1  0  0  0  0
 10  1  2  0  0  0  0
 11  2  2  0  0  0  0
 12 11  1  0  0  0  0
 13 17  1  0  0  0  0
 14 15  1  0  0  0  0
 15  6  1  0  0  0  0
 16  1  1  0  0  0  0
 17 14  2  0  0  0  0
 18  5  1  0  0  0  0
 19  8  1  0  0  0  0
 20  4  1  0  0  0  0
 21 18  1  0  0  0  0
 22 19  1  0  0  0  0
  4  7  1  0  0  0  0
  8  5  1  0  0  0  0
M  END
>  <ID> (9073727)
9073727

>  <Supplier> (9073727)
ChemBridge

>  <clogP> (9073727)
3.335000000000000e+000

>  <RB> (9073727)
4

>  <tPSA> (9073727)
6.779000000000002e+001

>  <Hacc> (9073727)
4

>  <Hdon> (9073727)
2

>  <LogSw> (9073727)
-4.246000000000000e+000

>  <Group> (9073727)
2

>  <Core> (9073727)
450

$$$$
9073721
  -ISIS-  03310818292D

 22 24  0  0  0  0  0  0  0  0999 V2000
    3.1292    2.2958    0.0000 C   0  0  0  0  0  0  0  0  0  0  0  0
    3.1292    1.5458    0.0000 C   0  0  0  0  0  0  0  0  0  0  0  0
    4.2792    1.9208    0.0000 C   0  0  0  0  0  0  0  0  0  0  0  0
    3.8417    2.5333    0.0000 N   0  0  3  0  0  0  0  0  0  0  0  0
    3.8417    1.3208    0.0000 N   0  0  0  0  0  0  0  0  0  0  0  0
    2.4792    1.1708    0.0000 N   0  0  3  0  0  0  0  0  0  0  0  0
    1.8292    2.2958    0.0000 N   0  0  3  0  0  0  0  0  0  0  0  0
    1.8292    1.5458    0.0000 C   0  0  0  0  0  0  0  0  0  0  0  0
    2.4792    2.6708    0.0000 C   0  0  0  0  0  0  0  0  0  0  0  0
    4.9917    2.1583    0.0000 N   0  0  3  0  0  0  0  0  0  0  0  0
    4.2792    3.1333    0.0000 C   0  0  0  0  0  0  0  0  0  0  0  0
    4.9917    2.9083    0.0000 C   0  0  0  0  0  0  0  0  0  0  0  0
    1.1792    1.1708    0.0000 O   0  0  0  0  0  0  0  0  0  0  0  0
    2.4792    3.4208    0.0000 O   0  0  0  0  0  0  0  0  0  0  0  0
    1.1792    2.6708    0.0000 C   0  0  0  0  0  0  0  0  0  0  0  0
    2.4792    0.4208    0.0000 C   0  0  0  0  0  0  0  0  0  0  0  0
    1.1792    3.4208    0.0000 C   0  0  0  0  0  0  0  0  0  0  0  0
    0.5292    3.7958    0.0000 C   0  0  0  0  0  0  0  0  0  0  0  0
    5.6042    1.7125    0.0000 C   0  0  0  0  0  0  0  0  0  0  0  0
    5.6042    3.3458    0.0000 C   0  0  0  0  0  0  0  0  0  0  0  0
    6.2875    2.0208    0.0000 C   0  0  0  0  0  0  0  0  0  0  0  0
    6.8917    1.5750    0.0000 C   0  0  0  0  0  0  0  0  0  0  0  0
  2  1  2  0  0  0  0
  3  4  1  0  0  0  0
  4  1  1  0  0  0  0
  5  2  1  0  0  0  0
  6  2  1  0  0  0  0
  7  9  1  0  0  0  0
  8  7  1  0  0  0  0
  9  1  1  0  0  0  0
 10  3  1  0  0  0  0
 11  4  1  0  0  0  0
 12 11  2  0  0  0  0
 13  8  2  0  0  0  0
 14  9  2  0  0  0  0
 15  7  1  0  0  0  0
 16  6  1  0  0  0  0
 17 15  1  0  0  0  0
 18 17  2  0  0  0  0
 19 10  1  0  0  0  0
 20 12  1  0  0  0  0
 21 19  1  0  0  0  0
 22 21  1  0  0  0  0
  5  3  2  0  0  0  0
  8  6  1  0  0  0  0
 12 10  1  0  0  0  0
M  END
>  <ID> (9073721)
9073721

>  <Supplier> (9073721)
ChemBridge

>  <clogP> (9073721)
2.258000000000000e+000

>  <RB> (9073721)
2

>  <tPSA> (9073721)
6.622999999999995e+001

>  <Hacc> (9073721)
3

>  <Hdon> (9073721)
0

>  <LogSw> (9073721)
-3.319000000000000e+000

>  <Group> (9073721)
2

>  <Core> (9073721)
131

$$$$
9073720
  -ISIS-  03310818292D

 29 31  0  0  0  0  0  0  0  0999 V2000
    6.7667    1.4125    0.0000 N   0  0  0  0  0  0  0  0  0  0  0  0
    7.2042    2.0208    0.0000 C   0  0  0  0  0  0  0  0  0  0  0  0
    6.0500    1.6458    0.0000 C   0  0  0  0  0  0  0  0  0  0  0  0
    6.7667    2.6250    0.0000 N   0  0  0  0  0  0  0  0  0  0  0  0
    4.1542    1.0708    0.0000 C   0  0  0  0  0  0  0  0  0  0  0  0
    6.0500    2.3958    0.0000 O   0  0  0  0  0  0  0  0  0  0  0  0
    4.7542    1.5083    0.0000 N   0  0  3  0  0  0  0  0  0  0  0  0
    7.9542    2.0208    0.0000 C   0  0  0  0  0  0  0  0  0  0  0  0
    5.4417    1.2000    0.0000 C   0  0  0  0  0  0  0  0  0  0  0  0
    1.5667    0.7958    0.0000 C   0  0  0  0  0  0  0  0  0  0  0  0
    3.4667    1.3708    0.0000 C   0  0  0  0  0  0  0  0  0  0  0  0
    1.6417    0.0500    0.0000 C   0  0  0  0  0  0  0  0  0  0  0  0
    4.2292    0.3208    0.0000 O   0  0  0  0  0  0  0  0  0  0  0  0
    2.1750    1.2375    0.0000 C   0  0  0  0  0  0  0  0  0  0  0  0
    2.8625    0.9333    0.0000 C   0  0  0  0  0  0  0  0  0  0  0  0
    8.3292    1.3708    0.0000 C   0  0  0  0  0  0  0  0  0  0  0  0
    2.3292   -0.2542    0.0000 C   0  0  0  0  0  0  0  0  0  0  0  0
    2.9375    0.1833    0.0000 C   0  0  0  0  0  0  0  0  0  0  0  0
    9.0792    1.3708    0.0000 C   0  0  0  0  0  0  0  0  0  0  0  0
    0.8792    1.1000    0.0000 O   0  0  0  0  0  0  0  0  0  0  0  0
    1.0417   -0.3917    0.0000 O   0  0  0  0  0  0  0  0  0  0  0  0
    4.6792    2.2583    0.0000 C   0  0  0  0  0  0  0  0  0  0  0  0
    8.3292    2.6708    0.0000 C   0  0  0  0  0  0  0  0  0  0  0  0
    9.0792    2.6708    0.0000 C   0  0  0  0  0  0  0  0  0  0  0  0
    9.4542    2.0208    0.0000 C   0  0  0  0  0  0  0  0  0  0  0  0
    9.4542    0.7208    0.0000 C   0  0  0  0  0  0  0  0  0  0  0  0
    0.8042    1.8458    0.0000 C   0  0  0  0  0  0  0  0  0  0  0  0
    1.1167   -1.1375    0.0000 C   0  0  0  0  0  0  0  0  0  0  0  0
    5.2875    2.6958    0.0000 C   0  0  0  0  0  0  0  0  0  0  0  0
  2  1  1  0  0  0  0
  3  1  2  0  0  0  0
  4  2  2  0  0  0  0
  5  7  1  0  0  0  0
  6  3  1  0  0  0  0
  7  9  1  0  0  0  0
  8  2  1  0  0  0  0
  9  3  1  0  0  0  0
 10 14  2  0  0  0  0
 11  5  1  0  0  0  0
 12 17  2  0  0  0  0
 13  5  2  0  0  0  0
 14 15  1  0  0  0  0
 15 11  1  0  0  0  0
 16  8  2  0  0  0  0
 17 18  1  0  0  0  0
 18 15  2  0  0  0  0
 19 16  1  0  0  0  0
 20 10  1  0  0  0  0
 21 12  1  0  0  0  0
 22  7  1  0  0  0  0
 23  8  1  0  0  0  0
 24 23  2  0  0  0  0
 25 24  1  0  0  0  0
 26 19  1  0  0  0  0
 27 20  1  0  0  0  0
 28 21  1  0  0  0  0
 29 22  1  0  0  0  0
  6  4  1  0  0  0  0
 25 19  2  0  0  0  0
 12 10  1  0  0  0  0
M  END
>  <ID> (9073720)
9073720

>  <Supplier> (9073720)
ChemBridge

>  <clogP> (9073720)
2.790000000000000e+000

>  <RB> (9073720)
5

>  <tPSA> (9073720)
7.769000000000000e+001

>  <Hacc> (9073720)
6

>  <Hdon> (9073720)
0

>  <LogSw> (9073720)
-4.466000000000000e+000

>  <Group> (9073720)
2

>  <Core> (9073720)
204

$$$$
9073723
  -ISIS-  03310818292D

 21 21  0  0  0  0  0  0  0  0999 V2000
    4.5000    4.0042    0.0000 S   0  0  3  0  0  0  0  0  0  0  0  0
    4.1250    3.3583    0.0000 C   0  0  0  0  0  0  0  0  0  0  0  0
    3.0000    2.7083    0.0000 C   0  0  0  0  0  0  0  0  0  0  0  0
    3.3750    3.3583    0.0000 C   0  0  0  0  0  0  0  0  0  0  0  0
    2.2500    2.7083    0.0000 N   0  0  0  0  0  0  0  0  0  0  0  0
    4.7542    4.7042    0.0000 O   0  0  0  0  0  0  0  0  0  0  0  0
    3.8167    4.3167    0.0000 O   0  0  0  0  0  0  0  0  0  0  0  0
    1.8750    3.3583    0.0000 C   0  0  0  0  0  0  0  0  0  0  0  0
    5.2250    3.8208    0.0000 N   0  0  0  0  0  0  0  0  0  0  0  0
    3.3750    2.0583    0.0000 C   0  0  0  0  0  0  0  0  0  0  0  0
    4.5000    2.7083    0.0000 C   0  0  0  0  0  0  0  0  0  0  0  0
    2.2500    4.0042    0.0000 O   0  0  0  0  0  0  0  0  0  0  0  0
    4.1250    2.0583    0.0000 C   0  0  0  0  0  0  0  0  0  0  0  0
    3.0000    1.4125    0.0000 O   0  0  0  0  0  0  0  0  0  0  0  0
    1.1250    3.3583    0.0000 C   0  0  0  0  0  0  0  0  0  0  0  0
    5.7542    4.3417    0.0000 C   0  0  0  0  0  0  0  0  0  0  0  0
    3.3750    0.7625    0.0000 C   0  0  0  0  0  0  0  0  0  0  0  0
    6.4792    4.1417    0.0000 C   0  0  0  0  0  0  0  0  0  0  0  0
    7.0042    4.6792    0.0000 C   0  0  0  0  0  0  0  0  0  0  0  0
    0.7500    4.0042    0.0000 C   0  0  0  0  0  0  0  0  0  0  0  0
    7.7292    4.4792    0.0000 C   0  0  0  0  0  0  0  0  0  0  0  0
  2  1  1  0  0  0  0
  3  4  1  0  0  0  0
  4  2  2  0  0  0  0
  5  3  1  0  0  0  0
  6  1  2  0  0  0  0
  7  1  2  0  0  0  0
  8  5  1  0  0  0  0
  9  1  1  0  0  0  0
 10 13  1  0  0  0  0
 11  2  1  0  0  0  0
 12  8  2  0  0  0  0
 13 11  2  0  0  0  0
 14 10  1  0  0  0  0
 15  8  1  0  0  0  0
 16  9  1  0  0  0  0
 17 14  1  0  0  0  0
 18 16  1  0  0  0  0
 19 18  1  0  0  0  0
 20 15  1  0  0  0  0
 21 19  1  0  0  0  0
 10  3  2  0  0  0  0
M  END
>  <ID> (9073723)
9073723

>  <Supplier> (9073723)
ChemBridge

>  <clogP> (9073723)
1.960000000000000e+000

>  <RB> (9073723)
3

>  <tPSA> (9073723)
8.450000000000004e+001

>  <Hacc> (9073723)
5

>  <Hdon> (9073723)
2

>  <LogSw> (9073723)
-3.167000000000000e+000

>  <Group> (9073723)
2

>  <Core> (9073723)
236

$$$$
9004029
  -ISIS-  03310818282D

 14 16  0  0  0  0  0  0  0  0999 V2000
    2.8292    0.8333    0.0000 C   0  0  0  0  0  0  0  0  0  0  0  0
    1.7250    1.3333    0.0000 C   0  0  0  0  0  0  0  0  0  0  0  0
    2.3292    0.2833    0.0000 S   0  0  0  0  0  0  0  0  0  0  0  0
    2.4542    1.4833    0.0000 C   0  0  0  0  0  0  0  0  0  0  0  0
    1.6417    0.5833    0.0000 C   0  0  0  0  0  0  0  0  0  0  0  0
    3.5792    0.8333    0.0000 N   0  0  0  0  0  0  0  0  0  0  0  0
    2.8292    2.1333    0.0000 N   0  0  0  0  0  0  0  0  0  0  0  0
    3.9542    1.4833    0.0000 C   0  0  0  0  0  0  0  0  0  0  0  0
    3.5792    2.1333    0.0000 C   0  0  0  0  0  0  0  0  0  0  0  0
    4.7042    1.4833    0.0000 N   0  0  0  0  0  0  0  0  0  0  0  0
    1.1167    1.7708    0.0000 C   0  0  0  0  0  0  0  0  0  0  0  0
    0.9542    0.2833    0.0000 C   0  0  0  0  0  0  0  0  0  0  0  0
    0.4292    1.4625    0.0000 C   0  0  0  0  0  0  0  0  0  0  0  0
    0.3542    0.7208    0.0000 C   0  0  0  0  0  0  0  0  0  0  0  0
  2  4  1  0  0  0  0
  3  1  1  0  0  0  0
  4  1  2  0  0  0  0
  5  3  1  0  0  0  0
  6  1  1  0  0  0  0
  7  4  1  0  0  0  0
  8  6  2  0  0  0  0
  9  8  1  0  0  0  0
 10  8  1  0  0  0  0
 11  2  1  0  0  0  0
 12  5  1  0  0  0  0
 13 11  1  0  0  0  0
 14 12  1  0  0  0  0
  2  5  2  0  0  0  0
  9  7  2  0  0  0  0
 14 13  1  0  0  0  0
M  END
>  <ID> (9004029)
9004029

>  <Supplier> (9004029)
ChemBridge

>  <clogP> (9004029)
2.680000000000000e+000

>  <RB> (9004029)
0

>  <tPSA> (9004029)
5.180000000000000e+001

>  <Hacc> (9004029)
2

>  <Hdon> (9004029)
1

>  <LogSw> (9004029)
-2.987000000000000e+000

>  <Group> (9004029)
3

$$$$
6636107
  -ISIS-  03310818242D

 27 29  0  0  0  0  0  0  0  0999 V2000
   -2.0333   -1.5042    0.0000 C   0  0  0  0  0  0  0  0  0  0  0  0
    3.4792    0.1708    0.0000 N   0  3  0  0  0  0  0  0  0  0  0  0
   -2.5000   -0.7000    0.0000 C   0  0  0  0  0  0  0  0  0  0  0  0
    0.7542   -1.4875    0.0000 C   0  0  0  0  0  0  0  0  0  0  0  0
   -2.4833   -2.3042    0.0000 C   0  0  0  0  0  0  0  0  0  0  0  0
   -3.4208   -0.7000    0.0000 N   0  0  3  0  0  0  0  0  0  0  0  0
    3.0292   -0.6292    0.0000 C   0  0  0  0  0  0  0  0  0  0  0  0
    0.3000   -0.7000    0.0000 N   0  0  0  0  0  0  0  0  0  0  0  0
    1.6792   -1.4792    0.0000 C   0  0  0  0  0  0  0  0  0  0  0  0
   -1.1000   -1.5042    0.0000 C   0  0  0  0  0  0  0  0  0  0  0  0
    2.0875   -0.6792    0.0000 C   0  0  0  0  0  0  0  0  0  0  0  0
   -2.0208    0.1125    0.0000 C   0  0  0  0  0  0  0  0  0  0  0  0
    4.3875    0.1708    0.0000 O   0  5  0  0  0  0  0  0  0  0  0  0
    3.0167    0.9625    0.0000 O   0  0  0  0  0  0  0  0  0  0  0  0
   -0.6208   -0.7000    0.0000 C   0  0  0  0  0  0  0  0  0  0  0  0
    0.3042   -2.2875    0.0000 O   0  0  0  0  0  0  0  0  0  0  0  0
   -3.3958   -2.3042    0.0000 O   0  0  0  0  0  0  0  0  0  0  0  0
   -2.0208   -3.1042    0.0000 N   0  0  0  0  0  0  0  0  0  0  0  0
   -1.0958    0.1125    0.0000 C   0  0  0  0  0  0  0  0  0  0  0  0
   -3.8833   -1.5000    0.0000 C   0  0  0  0  0  0  0  0  0  0  0  0
   -3.8958    0.1000    0.0000 C   0  0  0  0  0  0  0  0  0  0  0  0
    3.5042   -1.4000    0.0000 C   0  0  0  0  0  0  0  0  0  0  0  0
    2.1792   -2.2667    0.0000 C   0  0  0  0  0  0  0  0  0  0  0  0
    3.0875   -2.2167    0.0000 C   0  0  0  0  0  0  0  0  0  0  0  0
   -4.8208    0.0958    0.0000 C   0  0  0  0  0  0  0  0  0  0  0  0
   -4.8125   -1.5042    0.0000 C   0  0  0  0  0  0  0  0  0  0  0  0
   -5.2833   -0.7042    0.0000 C   0  0  0  0  0  0  0  0  0  0  0  0
  2  7  1  0  0  0  0
  3  1  2  0  0  0  0
  4  8  1  0  0  0  0
  5  1  1  0  0  0  0
  6  3  1  0  0  0  0
  7 11  2  0  0  0  0
  8 15  1  0  0  0  0
  9  4  1  0  0  0  0
 10  1  1  0  0  0  0
 11  9  1  0  0  0  0
 12  3  1  0  0  0  0
 13  2  1  0  0  0  0
 14  2  2  0  0  0  0
 15 10  2  0  0  0  0
 16  4  2  0  0  0  0
 17  5  2  0  0  0  0
 18  5  1  0  0  0  0
 19 15  1  0  0  0  0
 20  6  1  0  0  0  0
 21  6  1  0  0  0  0
 22 24  2  0  0  0  0
 23  9  2  0  0  0  0
 24 23  1  0  0  0  0
 25 21  1  0  0  0  0
 26 20  1  0  0  0  0
 27 25  1  0  0  0  0
 12 19  2  0  0  0  0
 26 27  1  0  0  0  0
 22  7  1  0  0  0  0
M  CHG  2   2   1  13  -1
M  END
>  <ID> (6636107)
6636107

>  <Supplier> (6636107)
ChemBridge

>  <clogP> (6636107)
2.840000000000000e+000

>  <RB> (6636107)
4

>  <tPSA> (6636107)
1.185700000000000e+002

>  <Hacc> (6636107)
4

>  <Hdon> (6636107)
2

>  <LogSw> (6636107)
-4.701000000000001e+000

>  <Group> (6636107)
3

>  <Core> (6636107)
146

$$$$
6134261
  -ISIS-  03310818232D

 21 22  0  0  0  0  0  0  0  0999 V2000
    3.6375   -9.7542    0.0000 C   0  0  0  0  0  0  0  0  0  0  0  0
    3.6375  -10.5875    0.0000 C   0  0  0  0  0  0  0  0  0  0  0  0
    4.3500   -9.3500    0.0000 N   0  0  0  0  0  0  0  0  0  0  0  0
    5.0542   -8.9292    0.0000 C   0  0  0  0  0  0  0  0  0  0  0  0
    2.9167   -9.3500    0.0000 C   0  0  0  0  0  0  0  0  0  0  0  0
    5.7667   -9.3375    0.0000 O   0  0  0  0  0  0  0  0  0  0  0  0
    4.3500  -11.0000    0.0000 C   0  0  3  0  0  0  0  0  0  0  0  0
    5.7667   -7.7000    0.0000 O   0  0  0  0  0  0  0  0  0  0  0  0
    5.0500   -8.1042    0.0000 C   0  0  0  0  0  0  0  0  0  0  0  0
    5.7667   -6.8667    0.0000 C   0  0  0  0  0  0  0  0  0  0  0  0
    2.9167  -11.0000    0.0000 C   0  0  0  0  0  0  0  0  0  0  0  0
    2.2042  -10.5875    0.0000 C   0  0  0  0  0  0  0  0  0  0  0  0
    2.2042   -9.7542    0.0000 C   0  0  0  0  0  0  0  0  0  0  0  0
    2.9042   -8.5167    0.0000 C   0  0  0  0  0  0  0  0  0  0  0  0
    5.0542  -10.5875    0.0000 C   0  0  0  0  0  0  0  0  0  0  0  0
    4.3500  -11.8167    0.0000 C   0  0  0  0  0  0  0  0  0  0  0  0
    5.0542   -6.4542    0.0000 C   0  0  0  0  0  0  0  0  0  0  0  0
    6.4875   -6.4542    0.0000 C   0  0  0  0  0  0  0  0  0  0  0  0
    5.0542   -5.6375    0.0000 C   0  0  0  0  0  0  0  0  0  0  0  0
    6.4875   -5.6375    0.0000 C   0  0  0  0  0  0  0  0  0  0  0  0
    5.7667   -5.2167    0.0000 C   0  0  0  0  0  0  0  0  0  0  0  0
  2  1  1  0  0  0  0
  3  1  1  0  0  0  0
  4  3  1  0  0  0  0
  5  1  2  0  0  0  0
  6  4  2  0  0  0  0
  7  2  1  0  0  0  0
  8  9  1  0  0  0  0
  9  4  1  0  0  0  0
 10  8  1  0  0  0  0
 11  2  2  0  0  0  0
 12 13  2  0  0  0  0
 13  5  1  0  0  0  0
 14  5  1  0  0  0  0
 15  7  1  0  0  0  0
 16  7  1  0  0  0  0
 17 10  2  0  0  0  0
 18 10  1  0  0  0  0
 19 17  1  0  0  0  0
 20 18  2  0  0  0  0
 21 20  1  0  0  0  0
 11 12  1  0  0  0  0
 21 19  2  0  0  0  0
M  END
>  <ID> (6134261)
6134261

>  <Supplier> (6134261)
ChemBridge

>  <clogP> (6134261)
2.800000000000000e+000

>  <RB> (6134261)
4

>  <tPSA> (6134261)
3.833000000000000e+001

>  <Hacc> (6134261)
2

>  <Hdon> (6134261)
1

>  <LogSw> (6134261)
-3.658000000000000e+000

>  <Group> (6134261)
3

>  <Core> (6134261)
315

$$$$
6636105
  -ISIS-  03310818242D

 18 19  0  0  0  0  0  0  0  0999 V2000
    7.8792   -3.1542    0.0000 S   0  0  0  0  0  0  0  0  0  0  0  0
    6.7917   -3.9375    0.0000 N   0  0  0  0  0  0  0  0  0  0  0  0
    6.5500   -3.1500    0.0000 C   0  0  0  0  0  0  0  0  0  0  0  0
    7.6167   -3.9417    0.0000 C   0  0  0  0  0  0  0  0  0  0  0  0
    7.2167   -2.6667    0.0000 C   0  0  0  0  0  0  0  0  0  0  0  0
    5.7667   -2.8875    0.0000 C   0  0  0  0  0  0  0  0  0  0  0  0
    5.1500   -3.4375    0.0000 C   0  0  0  0  0  0  0  0  0  0  0  0
    4.3667   -3.1750    0.0000 C   0  0  0  0  0  0  0  0  0  0  0  0
    7.2167   -1.8417    0.0000 O   0  0  0  0  0  0  0  0  0  0  0  0
    8.1042   -4.6125    0.0000 S   0  0  0  0  0  0  0  0  0  0  0  0
    3.7500   -3.7167    0.0000 C   0  0  0  0  0  0  0  0  0  0  0  0
    5.3167   -4.2417    0.0000 C   0  0  0  0  0  0  0  0  0  0  0  0
    7.7625   -5.3625    0.0000 C   0  0  0  0  0  0  0  0  0  0  0  0
    2.9750   -3.4542    0.0000 C   0  0  0  0  0  0  0  0  0  0  0  0
    3.9167   -4.5167    0.0000 C   0  0  0  0  0  0  0  0  0  0  0  0
    3.3042   -5.0667    0.0000 C   0  0  0  0  0  0  0  0  0  0  0  0
    2.3542   -4.0000    0.0000 C   0  0  0  0  0  0  0  0  0  0  0  0
    2.5167   -4.8042    0.0000 C   0  0  0  0  0  0  0  0  0  0  0  0
  2  4  2  0  0  0  0
  3  5  1  0  0  0  0
  4  1  1  0  0  0  0
  5  1  1  0  0  0  0
  6  3  2  0  0  0  0
  7  6  1  0  0  0  0
  8  7  2  0  0  0  0
  9  5  2  0  0  0  0
 10  4  1  0  0  0  0
 11  8  1  0  0  0  0
 12  7  1  0  0  0  0
 13 10  1  0  0  0  0
 14 11  2  0  0  0  0
 15 11  1  0  0  0  0
 16 15  2  0  0  0  0
 17 14  1  0  0  0  0
 18 16  1  0  0  0  0
  2  3  1  0  0  0  0
 18 17  2  0  0  0  0
M  END
>  <ID> (6636105)
6636105

>  <Supplier> (6636105)
ChemBridge

>  <clogP> (6636105)
3.980000000000000e+000

>  <RB> (6636105)
2

>  <tPSA> (6636105)
2.943000000000000e+001

>  <Hacc> (6636105)
2

>  <Hdon> (6636105)
0

>  <LogSw> (6636105)
-4.608000000000000e+000

>  <Group> (6636105)
2

>  <Core> (6636105)
049

$$$$
6636103
  -ISIS-  03310818242D

 19 20  0  0  0  0  0  0  0  0999 V2000
    5.0500   -0.2292    0.0000 N   0  0  0  0  0  0  0  0  0  0  0  0
    5.7417   -0.6417    0.0000 C   0  0  0  0  0  0  0  0  0  0  0  0
    4.2667   -0.6750    0.0000 C   0  0  0  0  0  0  0  0  0  0  0  0
    4.2625   -1.5667    0.0000 O   0  0  0  0  0  0  0  0  0  0  0  0
    6.4542   -0.2375    0.0000 C   0  0  0  0  0  0  0  0  0  0  0  0
    1.4167   -0.6417    0.0000 C   0  0  0  0  0  0  0  0  0  0  0  0
    3.5667   -0.2542    0.0000 C   0  0  0  0  0  0  0  0  0  0  0  0
    2.8500   -0.6542    0.0000 C   0  0  0  0  0  0  0  0  0  0  0  0
    5.7417   -1.4542    0.0000 C   0  0  0  0  0  0  0  0  0  0  0  0
    6.4667    0.5750    0.0000 C   0  0  0  0  0  0  0  0  0  0  0  0
    7.1625   -0.6542    0.0000 C   0  0  0  0  0  0  0  0  0  0  0  0
    2.1417   -0.2375    0.0000 C   0  0  0  0  0  0  0  0  0  0  0  0
    0.7125   -0.2125    0.0000 C   0  0  0  0  0  0  0  0  0  0  0  0
    1.4125   -1.4542    0.0000 C   0  0  0  0  0  0  0  0  0  0  0  0
    6.4417   -1.8667    0.0000 C   0  0  0  0  0  0  0  0  0  0  0  0
    7.1542   -1.4667    0.0000 C   0  0  0  0  0  0  0  0  0  0  0  0
    0.6917   -1.8625    0.0000 C   0  0  0  0  0  0  0  0  0  0  0  0
   -0.0083   -0.6167    0.0000 C   0  0  0  0  0  0  0  0  0  0  0  0
   -0.0208   -1.4417    0.0000 C   0  0  0  0  0  0  0  0  0  0  0  0
  2  1  1  0  0  0  0
  3  1  1  0  0  0  0
  4  3  2  0  0  0  0
  5  2  1  0  0  0  0
  6 12  1  0  0  0  0
  7  3  1  0  0  0  0
  8  7  1  0  0  0  0
  9  2  2  0  0  0  0
 10  5  1  0  0  0  0
 11  5  2  0  0  0  0
 12  8  1  0  0  0  0
 13  6  2  0  0  0  0
 14  6  1  0  0  0  0
 15  9  1  0  0  0  0
 16 15  2  0  0  0  0
 17 14  2  0  0  0  0
 18 13  1  0  0  0  0
 19 17  1  0  0  0  0
 11 16  1  0  0  0  0
 19 18  2  0  0  0  0
M  END
>  <ID> (6636103)
6636103

>  <Supplier> (6636103)
ChemBridge

>  <clogP> (6636103)
3.480000000000000e+000

>  <RB> (6636103)
5

>  <tPSA> (6636103)
2.910000000000000e+001

>  <Hacc> (6636103)
1

>  <Hdon> (6636103)
1

>  <LogSw> (6636103)
-4.020000000000000e+000

>  <Group> (6636103)
3

$$$$
6636101
  -ISIS-  03310818242D

 16 17  0  0  0  0  0  0  0  0999 V2000
    5.5167   -2.5917    0.0000 C   0  0  0  0  0  0  0  0  0  0  0  0
    7.0667   -2.6042    0.0000 C   0  0  0  0  0  0  0  0  0  0  0  0
    6.2917   -2.1542    0.0000 N   0  0  0  0  0  0  0  0  0  0  0  0
    4.8167   -2.1917    0.0000 C   0  0  0  0  0  0  0  0  0  0  0  0
    7.1542   -3.5000    0.0000 N   0  0  0  0  0  0  0  0  0  0  0  0
    7.8917   -2.2417    0.0000 N   0  0  0  0  0  0  0  0  0  0  0  0
    8.4875   -2.9167    0.0000 N   0  0  0  0  0  0  0  0  0  0  0  0
    4.1125   -2.5917    0.0000 C   0  0  0  0  0  0  0  0  0  0  0  0
    8.0292   -3.6917    0.0000 C   0  0  0  0  0  0  0  0  0  0  0  0
    4.8167   -1.3792    0.0000 C   0  0  0  0  0  0  0  0  0  0  0  0
    5.5042   -3.4917    0.0000 O   0  0  0  0  0  0  0  0  0  0  0  0
    3.4042   -2.1792    0.0000 C   0  0  0  0  0  0  0  0  0  0  0  0
    4.1042   -3.4125    0.0000 Cl  0  0  0  0  0  0  0  0  0  0  0  0
    4.1167   -0.9667    0.0000 C   0  0  0  0  0  0  0  0  0  0  0  0
    3.4125   -1.3667    0.0000 C   0  0  0  0  0  0  0  0  0  0  0  0
    2.7042   -0.9542    0.0000 C   0  0  0  0  0  0  0  0  0  0  0  0
  2  3  1  0  0  0  0
  3  1  1  0  0  0  0
  4  1  1  0  0  0  0
  5  2  1  0  0  0  0
  6  2  2  0  0  0  0
  7  6  1  0  0  0  0
  8  4  1  0  0  0  0
  9  5  1  0  0  0  0
 10  4  2  0  0  0  0
 11  1  2  0  0  0  0
 12  8  2  0  0  0  0
 13  8  1  0  0  0  0
 14 10  1  0  0  0  0
 15 14  2  0  0  0  0
 16 15  1  0  0  0  0
 15 12  1  0  0  0  0
  7  9  2  0  0  0  0
M  END
>  <ID> (6636101)
6636101

>  <Supplier> (6636101)
ChemBridge

>  <clogP> (6636101)
1.010000000000000e+000

>  <RB> (6636101)
2

>  <tPSA> (6636101)
7.066999999999999e+001

>  <Hacc> (6636101)
3

>  <Hdon> (6636101)
2

>  <LogSw> (6636101)
-1.789000000000000e+000

>  <Group> (6636101)
3

$$$$
7978052
  -ISIS-  03310818282D

 30 33  0  0  0  0  0  0  0  0999 V2000
    4.8792    2.4833    0.0000 C   0  0  0  0  0  0  0  0  0  0  0  0
    4.8792    1.7333    0.0000 N   0  0  3  0  0  0  0  0  0  0  0  0
    5.5292    1.3583    0.0000 C   0  0  0  0  0  0  0  0  0  0  0  0
    4.1667    2.7208    0.0000 C   0  0  0  0  0  0  0  0  0  0  0  0
    5.5292    2.8583    0.0000 N   0  0  0  0  0  0  0  0  0  0  0  0
    4.1667    1.5083    0.0000 N   0  0  0  0  0  0  0  0  0  0  0  0
    6.1792    1.7333    0.0000 C   0  0  0  0  0  0  0  0  0  0  0  0
    2.9667    4.2917    0.0000 C   0  0  0  0  0  0  0  0  0  0  0  0
    3.9375    3.4333    0.0000 C   0  0  0  0  0  0  0  0  0  0  0  0
    6.1792    2.4833    0.0000 C   0  0  0  0  0  0  0  0  0  0  0  0
    3.4125    4.9042    0.0000 C   0  0  0  0  0  0  0  0  0  0  0  0
    2.2542    5.2792    0.0000 N   0  0  0  0  0  0  0  0  0  0  0  0
    2.9667    5.5042    0.0000 N   0  0  3  0  0  0  0  0  0  0  0  0
    3.7292    2.1083    0.0000 C   0  0  0  0  0  0  0  0  0  0  0  0
    3.2042    3.5875    0.0000 N   0  0  0  0  0  0  0  0  0  0  0  0
    2.2542    4.5292    0.0000 C   0  0  0  0  0  0  0  0  0  0  0  0
    5.5292    0.6083    0.0000 C   0  0  3  0  0  0  0  0  0  0  0  0
    6.8292    2.8583    0.0000 C   0  0  0  0  0  0  0  0  0  0  0  0
    4.4417    3.9875    0.0000 O   0  0  0  0  0  0  0  0  0  0  0  0
    7.4792    2.4833    0.0000 C   0  0  0  0  0  0  0  0  0  0  0  0
    6.8292    3.6083    0.0000 C   0  0  0  0  0  0  0  0  0  0  0  0
    6.1792    0.2333    0.0000 F   0  0  0  0  0  0  0  0  0  0  0  0
    4.8792    0.2333    0.0000 F   0  0  0  0  0  0  0  0  0  0  0  0
    8.1292    3.6083    0.0000 C   0  0  0  0  0  0  0  0  0  0  0  0
    4.1625    4.9042    0.0000 C   0  0  0  0  0  0  0  0  0  0  0  0
    8.1292    2.8583    0.0000 C   0  0  0  0  0  0  0  0  0  0  0  0
    7.4792    3.9833    0.0000 C   0  0  0  0  0  0  0  0  0  0  0  0
    3.2042    6.2167    0.0000 C   0  0  0  0  0  0  0  0  0  0  0  0
    8.7792    3.9833    0.0000 O   0  0  0  0  0  0  0  0  0  0  0  0
    8.7792    4.7292    0.0000 C   0  0  0  0  0  0  0  0  0  0  0  0
  2  1  1  0  0  0  0
  3  2  1  0  0  0  0
  4  1  2  0  0  0  0
  5  1  1  0  0  0  0
  6  2  1  0  0  0  0
  7 10  1  0  0  0  0
  8 15  1  0  0  0  0
  9  4  1  0  0  0  0
 10  5  2  0  0  0  0
 11  8  2  0  0  0  0
 12 16  2  0  0  0  0
 13 11  1  0  0  0  0
 14  4  1  0  0  0  0
 15  9  1  0  0  0  0
 16  8  1  0  0  0  0
 17  3  1  0  0  0  0
 18 10  1  0  0  0  0
 19  9  2  0  0  0  0
 20 18  2  0  0  0  0
 21 18  1  0  0  0  0
 22 17  1  0  0  0  0
 23 17  1  0  0  0  0
 24 27  1  0  0  0  0
 25 11  1  0  0  0  0
 26 20  1  0  0  0  0
 27 21  2  0  0  0  0
 28 13  1  0  0  0  0
 29 24  1  0  0  0  0
 30 29  1  0  0  0  0
  6 14  2  0  0  0  0
  3  7  2  0  0  0  0
 26 24  2  0  0  0  0
 13 12  1  0  0  0  0
M  END
>  <ID> (7978052)
7978052

>  <Supplier> (7978052)
ChemBridge

>  <clogP> (7978052)
2.039000000000000e+000

>  <RB> (7978052)
3

>  <tPSA> (7978052)
8.633999999999999e+001

>  <Hacc> (7978052)
5

>  <Hdon> (7978052)
1

>  <LogSw> (7978052)
-3.948000000000000e+000

>  <Group> (7978052)
2

>  <Core> (7978052)
055

$$$$
6900394
  -ISIS-  03310818242D

 39 42  0  0  0  0  0  0  0  0999 V2000
    1.1292   -1.4042    0.0000 C   0  0  0  0  0  0  0  0  0  0  0  0
    1.8042   -0.7292    0.0000 N   0  0  3  0  0  0  0  0  0  0  0  0
    0.8625   -0.8750    0.0000 C   0  0  0  0  0  0  0  0  0  0  0  0
    1.7042   -1.3125    0.0000 C   0  0  3  0  0  0  0  0  0  0  0  0
    1.2750   -0.4625    0.0000 C   0  0  0  0  0  0  0  0  0  0  0  0
    0.7750   -1.8042    0.0000 C   0  0  0  0  0  0  0  0  0  0  0  0
    2.1250   -1.7167    0.0000 C   0  0  0  0  0  0  0  0  0  0  0  0
    0.2667   -1.9667    0.0000 C   0  0  0  0  0  0  0  0  0  0  0  0
    2.9417   -2.5417    0.0000 C   0  0  0  0  0  0  0  0  0  0  0  0
    3.0917   -1.9750    0.0000 C   0  0  0  0  0  0  0  0  0  0  0  0
    2.3792   -2.6917    0.0000 C   0  0  0  0  0  0  0  0  0  0  0  0
    0.0042   -2.4917    0.0000 C   0  0  0  0  0  0  0  0  0  0  0  0
    1.9667   -2.2792    0.0000 C   0  0  0  0  0  0  0  0  0  0  0  0
    2.6792   -1.5667    0.0000 C   0  0  0  0  0  0  0  0  0  0  0  0
   -0.0458   -1.4667    0.0000 C   0  0  0  0  0  0  0  0  0  0  0  0
    1.1792    0.1208    0.0000 O   0  0  0  0  0  0  0  0  0  0  0  0
    1.8792    1.0125    0.0000 N   0  0  3  0  0  0  0  0  0  0  0  0
    1.0625   -2.2500    0.0000 O   0  0  0  0  0  0  0  0  0  0  0  0
   -0.5833   -2.5167    0.0000 C   0  0  0  0  0  0  0  0  0  0  0  0
    0.2792   -0.7792    0.0000 O   0  0  0  0  0  0  0  0  0  0  0  0
    2.3125   -0.4625    0.0000 C   0  0  0  0  0  0  0  0  0  0  0  0
    1.9417    2.1708    0.0000 O   0  0  0  0  0  0  0  0  0  0  0  0
    2.3417    0.1208    0.0000 C   0  0  0  0  0  0  0  0  0  0  0  0
   -0.9125   -2.0292    0.0000 C   0  0  0  0  0  0  0  0  0  0  0  0
    3.3667   -2.9625    0.0000 O   0  0  0  0  0  0  0  0  0  0  0  0
   -0.6333   -1.4917    0.0000 C   0  0  0  0  0  0  0  0  0  0  0  0
    2.2292   -3.2667    0.0000 O   0  0  0  0  0  0  0  0  0  0  0  0
    3.6667   -1.8167    0.0000 O   0  0  0  0  0  0  0  0  0  0  0  0
    1.8542    0.4333    0.0000 C   0  0  0  0  0  0  0  0  0  0  0  0
   -1.5000   -2.0542    0.0000 O   0  0  0  0  0  0  0  0  0  0  0  0
    2.4000    1.2708    0.0000 C   0  0  0  0  0  0  0  0  0  0  0  0
    1.3917    1.3208    0.0000 C   0  0  0  0  0  0  0  0  0  0  0  0
    0.3250   -2.9875    0.0000 C   0  0  0  0  0  0  0  0  0  0  0  0
    2.4292    1.8500    0.0000 C   0  0  0  0  0  0  0  0  0  0  0  0
    1.4250    1.9083    0.0000 C   0  0  0  0  0  0  0  0  0  0  0  0
    3.2125   -3.5292    0.0000 C   0  0  0  0  0  0  0  0  0  0  0  0
    4.0875   -2.2375    0.0000 C   0  0  0  0  0  0  0  0  0  0  0  0
    1.6542   -3.4167    0.0000 C   0  0  0  0  0  0  0  0  0  0  0  0
   -1.7708   -2.5750    0.0000 C   0  0  0  0  0  0  0  0  0  0  0  0
  2  4  1  0  0  0  0
  3  1  2  0  0  0  0
  4  1  1  0  0  0  0
  5  3  1  0  0  0  0
  6  1  1  0  0  0  0
  7  4  1  0  0  0  0
  8  6  1  0  0  0  0
  9 10  1  0  0  0  0
 10 14  2  0  0  0  0
 11 13  1  0  0  0  0
 12  8  2  0  0  0  0
 13  7  2  0  0  0  0
 14  7  1  0  0  0  0
 15  8  1  0  0  0  0
 16  5  2  0  0  0  0
 17 29  1  0  0  0  0
 18  6  2  0  0  0  0
 19 12  1  0  0  0  0
 20  3  1  0  0  0  0
 21  2  1  0  0  0  0
 22 35  1  0  0  0  0
 23 21  1  0  0  0  0
 24 26  1  0  0  0  0
 25  9  1  0  0  0  0
 26 15  2  0  0  0  0
 27 11  1  0  0  0  0
 28 10  1  0  0  0  0
 29 23  1  0  0  0  0
 30 24  1  0  0  0  0
 31 17  1  0  0  0  0
 32 17  1  0  0  0  0
 33 12  1  0  0  0  0
 34 31  1  0  0  0  0
 35 32  1  0  0  0  0
 36 25  1  0  0  0  0
 37 28  1  0  0  0  0
 38 27  1  0  0  0  0
 39 30  1  0  0  0  0
  5  2  1  0  0  0  0
  9 11  2  0  0  0  0
 24 19  2  0  0  0  0
 22 34  1  0  0  0  0
M  END
>  <ID> (6900394)
6900394

>  <Supplier> (6900394)
ChemBridge

>  <clogP> (6900394)
3.630000000000000e+000

>  <RB> (6900394)
7

>  <tPSA> (6900394)
1.070000000000000e+002

>  <Hacc> (6900394)
9

>  <Hdon> (6900394)
1

>  <LogSw> (6900394)
-6.240000000000000e+000

>  <Group> (6900394)
1

>  <Core> (6900394)
095

$$$$
5713902
  -ISIS-  03310818222D

 26 27  0  0  0  0  0  0  0  0999 V2000
    1.8167   -1.7542    0.0000 C   0  0  0  0  0  0  0  0  0  0  0  0
    1.8167   -2.5875    0.0000 C   0  0  0  0  0  0  0  0  0  0  0  0
    1.1000   -1.3500    0.0000 C   0  0  3  0  0  0  0  0  0  0  0  0
    0.3875   -2.5875    0.0000 C   0  0  0  0  0  0  0  0  0  0  0  0
    1.1000   -3.0000    0.0000 N   0  0  3  0  0  0  0  0  0  0  0  0
    0.3875   -1.7542    0.0000 N   0  0  0  0  0  0  0  0  0  0  0  0
   -0.3208   -0.5167    0.0000 N   0  3  0  0  0  0  0  0  0  0  0  0
    1.1000   -0.5167    0.0000 C   0  0  0  0  0  0  0  0  0  0  0  0
    0.3792   -0.1042    0.0000 C   0  0  0  0  0  0  0  0  0  0  0  0
    2.5292   -1.3500    0.0000 C   0  0  0  0  0  0  0  0  0  0  0  0
   -1.0458   -0.1042    0.0000 O   0  5  0  0  0  0  0  0  0  0  0  0
   -0.3208   -3.0042    0.0000 O   0  0  0  0  0  0  0  0  0  0  0  0
   -0.3208   -1.3500    0.0000 O   0  0  0  0  0  0  0  0  0  0  0  0
    2.5292   -0.5167    0.0000 O   0  0  0  0  0  0  0  0  0  0  0  0
    2.5292   -3.0000    0.0000 C   0  0  0  0  0  0  0  0  0  0  0  0
    1.1000   -3.8167    0.0000 C   0  0  0  0  0  0  0  0  0  0  0  0
    3.2500   -1.7542    0.0000 O   0  0  0  0  0  0  0  0  0  0  0  0
    1.8042   -0.1042    0.0000 C   0  0  0  0  0  0  0  0  0  0  0  0
    0.3792    0.7000    0.0000 C   0  0  0  0  0  0  0  0  0  0  0  0
    5.4000   -1.3500    0.0000 O   0  0  0  0  0  0  0  0  0  0  0  0
    3.9667   -1.3500    0.0000 C   0  0  0  0  0  0  0  0  0  0  0  0
    4.6792   -1.7542    0.0000 C   0  0  0  0  0  0  0  0  0  0  0  0
    6.1042   -1.7542    0.0000 C   0  0  0  0  0  0  0  0  0  0  0  0
    0.3875   -4.2292    0.0000 C   0  0  0  0  0  0  0  0  0  0  0  0
    1.8042    0.7000    0.0000 C   0  0  0  0  0  0  0  0  0  0  0  0
    1.1000    1.1208    0.0000 C   0  0  0  0  0  0  0  0  0  0  0  0
  2  1  2  0  0  0  0
  3  1  1  0  0  0  0
  4  6  1  0  0  0  0
  5  2  1  0  0  0  0
  6  3  1  0  0  0  0
  7  9  1  0  0  0  0
  8  3  1  0  0  0  0
  9  8  2  0  0  0  0
 10  1  1  0  0  0  0
 11  7  1  0  0  0  0
 12  4  2  0  0  0  0
 13  7  2  0  0  0  0
 14 10  2  0  0  0  0
 15  2  1  0  0  0  0
 16  5  1  0  0  0  0
 17 10  1  0  0  0  0
 18  8  1  0  0  0  0
 19  9  1  0  0  0  0
 20 22  1  0  0  0  0
 21 17  1  0  0  0  0
 22 21  1  0  0  0  0
 23 20  1  0  0  0  0
 24 16  1  0  0  0  0
 25 18  2  0  0  0  0
 26 25  1  0  0  0  0
  4  5  1  0  0  0  0
 19 26  2  0  0  0  0
M  CHG  2   7   1  11  -1
M  END
>  <ID> (5713902)
5713902

>  <Supplier> (5713902)
ChemBridge

>  <clogP> (5713902)
4.290000000000000e+000

>  <RB> (5713902)
5

>  <tPSA> (5713902)
1.110100000000000e+002

>  <Hacc> (5713902)
6

>  <Hdon> (5713902)
1

>  <LogSw> (5713902)
-5.903000000000001e+000

>  <Group> (5713902)
1

>  <Core> (5713902)
072

$$$$
6134263
  -ISIS-  03310818232D

 23 26  0  0  0  0  0  0  0  0999 V2000
    6.0917   -3.7542    0.0000 N   0  0  3  0  0  0  0  0  0  0  0  0
    5.4417   -3.3750    0.0000 C   0  0  0  0  0  0  0  0  0  0  0  0
    6.0917   -4.5042    0.0000 C   0  0  0  0  0  0  0  0  0  0  0  0
    5.4417   -4.8792    0.0000 N   0  0  0  0  0  0  0  0  0  0  0  0
    4.7917   -3.7542    0.0000 C   0  0  0  0  0  0  0  0  0  0  0  0
    6.7417   -3.3792    0.0000 C   0  0  0  0  0  0  0  0  0  0  0  0
    4.7917   -4.5042    0.0000 C   0  0  0  0  0  0  0  0  0  0  0  0
    6.7417   -2.6292    0.0000 C   0  0  0  0  0  0  0  0  0  0  0  0
    5.4417   -2.6250    0.0000 O   0  0  0  0  0  0  0  0  0  0  0  0
    7.3917   -2.2542    0.0000 C   0  0  0  0  0  0  0  0  0  0  0  0
    7.3917   -3.7542    0.0000 C   0  0  0  0  0  0  0  0  0  0  0  0
    8.0417   -3.3792    0.0000 C   0  0  0  0  0  0  0  0  0  0  0  0
    8.0417   -2.6292    0.0000 C   0  0  0  0  0  0  0  0  0  0  0  0
    6.7417   -4.8792    0.0000 C   0  0  0  0  0  0  0  0  0  0  0  0
    4.1417   -3.3750    0.0000 C   0  0  0  0  0  0  0  0  0  0  0  0
    4.1417   -4.8792    0.0000 C   0  0  0  0  0  0  0  0  0  0  0  0
    7.4000   -1.5042    0.0000 C   0  0  0  0  0  0  0  0  0  0  0  0
    8.6917   -2.2542    0.0000 C   0  0  0  0  0  0  0  0  0  0  0  0
    7.3917   -4.5042    0.0000 C   0  0  0  0  0  0  0  0  0  0  0  0
    3.4875   -3.7542    0.0000 C   0  0  0  0  0  0  0  0  0  0  0  0
    3.4875   -4.5042    0.0000 C   0  0  0  0  0  0  0  0  0  0  0  0
    8.0500   -1.1292    0.0000 C   0  0  0  0  0  0  0  0  0  0  0  0
    8.6917   -1.5042    0.0000 C   0  0  0  0  0  0  0  0  0  0  0  0
  2  1  1  0  0  0  0
  3  1  1  0  0  0  0
  4  3  2  0  0  0  0
  5  2  1  0  0  0  0
  6  1  1  0  0  0  0
  7  4  1  0  0  0  0
  8  6  2  0  0  0  0
  9  2  2  0  0  0  0
 10  8  1  0  0  0  0
 11  6  1  0  0  0  0
 12 11  2  0  0  0  0
 13 12  1  0  0  0  0
 14  3  1  0  0  0  0
 15  5  1  0  0  0  0
 16  7  1  0  0  0  0
 17 10  2  0  0  0  0
 18 13  2  0  0  0  0
 19 14  1  0  0  0  0
 20 15  2  0  0  0  0
 21 16  2  0  0  0  0
 22 17  1  0  0  0  0
 23 18  1  0  0  0  0
  7  5  2  0  0  0  0
 10 13  1  0  0  0  0
 21 20  1  0  0  0  0
 22 23  2  0  0  0  0
M  END
>  <ID> (6134263)
6134263

>  <Supplier> (6134263)
ChemBridge

>  <clogP> (6134263)
4.130000000000000e+000

>  <RB> (6134263)
1

>  <tPSA> (6134263)
3.489000000000000e+001

>  <Hacc> (6134263)
2

>  <Hdon> (6134263)
0

>  <LogSw> (6134263)
-4.918000000000000e+000

>  <Group> (6134263)
2

>  <Core> (6134263)
061

$$$$
5431169
  -ISIS-  03310818222D

 24 28  0  0  0  0  0  0  0  0999 V2000
   -0.5958    2.2125    0.0000 C   0  0  3  0  0  0  0  0  0  0  0  0
   -1.9125    2.1458    0.0000 N   0  0  3  0  0  0  0  0  0  0  0  0
    0.7667    2.2125    0.0000 C   0  0  0  0  0  0  0  0  0  0  0  0
    0.0875    1.8125    0.0000 C   0  0  3  0  0  0  0  0  0  0  0  0
   -3.2458    2.9208    0.0000 N   0  0  3  0  0  0  0  0  0  0  0  0
   -5.9333    2.9208    0.0000 C   0  0  0  0  0  0  0  0  0  0  0  0
    0.7667    3.0000    0.0000 C   0  0  0  0  0  0  0  0  0  0  0  0
   -1.2208    1.7500    0.0000 C   0  0  0  0  0  0  0  0  0  0  0  0
   -5.9333    2.1458    0.0000 C   0  0  0  0  0  0  0  0  0  0  0  0
   -6.6500    3.1500    0.0000 O   0  0  0  0  0  0  0  0  0  0  0  0
   -6.6542    1.9000    0.0000 O   0  0  0  0  0  0  0  0  0  0  0  0
    0.0875    3.3958    0.0000 C   0  0  3  0  0  0  0  0  0  0  0  0
   -7.1042    2.5500    0.0000 C   0  0  0  0  0  0  0  0  0  0  0  0
   -0.5958    2.9958    0.0000 C   0  0  0  0  0  0  0  0  0  0  0  0
   -5.2500    3.3125    0.0000 C   0  0  0  0  0  0  0  0  0  0  0  0
    0.4792    2.5833    0.0000 C   0  0  0  0  0  0  0  0  0  0  0  0
   -4.6000    2.9208    0.0000 C   0  0  0  0  0  0  0  0  0  0  0  0
   -3.9208    3.3125    0.0000 C   0  0  0  0  0  0  0  0  0  0  0  0
   -5.2500    1.7500    0.0000 C   0  0  0  0  0  0  0  0  0  0  0  0
   -2.5958    1.7500    0.0000 C   0  0  0  0  0  0  0  0  0  0  0  0
   -1.9125    2.9208    0.0000 C   0  0  0  0  0  0  0  0  0  0  0  0
   -2.5958    3.3125    0.0000 C   0  0  0  0  0  0  0  0  0  0  0  0
   -3.2458    2.1458    0.0000 C   0  0  0  0  0  0  0  0  0  0  0  0
   -4.6000    2.1458    0.0000 C   0  0  0  0  0  0  0  0  0  0  0  0
  2  8  1  0  0  0  0
  3  4  1  0  0  0  0
  4  1  1  0  0  0  0
  5 22  1  0  0  0  0
  6 15  1  0  0  0  0
  7 12  1  0  0  0  0
  8  1  1  0  0  0  0
  9 19  1  0  0  0  0
 10  6  1  0  0  0  0
 11  9  1  0  0  0  0
 12 14  1  0  0  0  0
 13 10  1  0  0  0  0
 14  1  1  0  0  0  0
 15 17  2  0  0  0  0
 16  4  1  0  0  0  0
 17 18  1  0  0  0  0
 18  5  1  0  0  0  0
 19 24  2  0  0  0  0
 20  2  1  0  0  0  0
 21  2  1  0  0  0  0
 22 21  1  0  0  0  0
 23 20  1  0  0  0  0
 24 17  1  0  0  0  0
 12 16  1  0  0  0  0
  3  7  2  0  0  0  0
 23  5  1  0  0  0  0
  6  9  2  0  0  0  0
 13 11  1  0  0  0  0
M  END
>  <ID> (5431169)
5431169

>  <Supplier> (5431169)
ChemBridge

>  <clogP> (5431169)
3.810000000000000e+000

>  <RB> (5431169)
4

>  <tPSA> (5431169)
2.494000000000000e+001

>  <Hacc> (5431169)
4

>  <Hdon> (5431169)
0

>  <LogSw> (5431169)
-3.826000000000000e+000

>  <Group> (5431169)
2

>  <Core> (5431169)
164

$$$$
6704561
  -ISIS-  03310818242D

 30 33  0  0  0  0  0  0  0  0999 V2000
   -1.8958   -0.7042    0.0000 C   0  0  0  0  0  0  0  0  0  0  0  0
   -1.3333   -0.0292    0.0000 C   0  0  0  0  0  0  0  0  0  0  0  0
   -2.2500   -1.0667    0.0000 C   0  0  0  0  0  0  0  0  0  0  0  0
   -2.0333   -1.5042    0.0000 N   0  0  0  0  0  0  0  0  0  0  0  0
   -1.8125   -0.2042    0.0000 C   0  0  3  0  0  0  0  0  0  0  0  0
   -1.5500   -1.4500    0.0000 N   0  0  3  0  0  0  0  0  0  0  0  0
   -1.4500   -0.9667    0.0000 C   0  0  0  0  0  0  0  0  0  0  0  0
   -1.2500    0.4958    0.0000 C   0  0  0  0  0  0  0  0  0  0  0  0
   -0.9125   -0.3292    0.0000 C   0  0  0  0  0  0  0  0  0  0  0  0
   -2.1125    0.6125    0.0000 C   0  0  0  0  0  0  0  0  0  0  0  0
   -1.6500    0.7958    0.0000 N   0  0  0  0  0  0  0  0  0  0  0  0
   -2.2125    0.1125    0.0000 N   0  0  0  0  0  0  0  0  0  0  0  0
   -2.7500   -1.0292    0.0000 C   0  0  0  0  0  0  0  0  0  0  0  0
   -0.4500   -0.1292    0.0000 O   0  0  0  0  0  0  0  0  0  0  0  0
   -3.1958   -1.2875    0.0000 S   0  0  0  0  0  0  0  0  0  0  0  0
   -0.9708   -0.8292    0.0000 O   0  0  0  0  0  0  0  0  0  0  0  0
   -1.2333   -1.8500    0.0000 C   0  0  0  0  0  0  0  0  0  0  0  0
   -2.5125    0.9333    0.0000 O   0  0  0  0  0  0  0  0  0  0  0  0
   -2.8708   -0.5292    0.0000 C   0  0  0  0  0  0  0  0  0  0  0  0
   -3.5708   -0.9500    0.0000 C   0  0  0  0  0  0  0  0  0  0  0  0
   -3.3708   -0.4875    0.0000 C   0  0  0  0  0  0  0  0  0  0  0  0
   -0.7708    0.6958    0.0000 C   0  0  0  0  0  0  0  0  0  0  0  0
   -0.0125   -0.4042    0.0000 C   0  0  3  0  0  0  0  0  0  0  0  0
   -1.4333   -2.3292    0.0000 C   0  0  0  0  0  0  0  0  0  0  0  0
   -0.7333   -1.7875    0.0000 C   0  0  0  0  0  0  0  0  0  0  0  0
    0.4500   -0.1875    0.0000 C   0  0  0  0  0  0  0  0  0  0  0  0
   -0.0500   -0.9042    0.0000 C   0  0  0  0  0  0  0  0  0  0  0  0
   -0.4333   -2.2042    0.0000 C   0  0  0  0  0  0  0  0  0  0  0  0
   -1.1333   -2.7292    0.0000 C   0  0  0  0  0  0  0  0  0  0  0  0
   -0.6333   -2.6500    0.0000 C   0  0  0  0  0  0  0  0  0  0  0  0
  2  5  1  0  0  0  0
  3  1  1  0  0  0  0
  4  3  2  0  0  0  0
  5  1  1  0  0  0  0
  6  7  1  0  0  0  0
  7  1  2  0  0  0  0
  8  2  2  0  0  0  0
  9  2  1  0  0  0  0
 10 12  1  0  0  0  0
 11 10  1  0  0  0  0
 12  5  1  0  0  0  0
 13  3  1  0  0  0  0
 14  9  1  0  0  0  0
 15 13  1  0  0  0  0
 16  9  2  0  0  0  0
 17  6  1  0  0  0  0
 18 10  2  0  0  0  0
 19 13  2  0  0  0  0
 20 15  1  0  0  0  0
 21 19  1  0  0  0  0
 22  8  1  0  0  0  0
 23 14  1  0  0  0  0
 24 17  2  0  0  0  0
 25 17  1  0  0  0  0
 26 23  1  0  0  0  0
 27 23  1  0  0  0  0
 28 25  2  0  0  0  0
 29 24  1  0  0  0  0
 30 28  1  0  0  0  0
  4  6  1  0  0  0  0
  8 11  1  0  0  0  0
 21 20  2  0  0  0  0
 30 29  2  0  0  0  0
M  END
>  <ID> (6704561)
6704561

>  <Supplier> (6704561)
ChemBridge

>  <clogP> (6704561)
4.690000000000000e+000

>  <RB> (6704561)
5

>  <tPSA> (6704561)
8.525000000000000e+001

>  <Hacc> (6704561)
5

>  <Hdon> (6704561)
2

>  <LogSw> (6704561)
-6.285000000000000e+000

>  <Group> (6704561)
3

>  <Core> (6704561)
072

$$$$
6134262
  -ISIS-  03310818232D

 22 24  0  0  0  0  0  0  0  0999 V2000
    3.4792   -0.2167    0.0000 C   0  0  0  0  0  0  0  0  0  0  0  0
    4.1917    0.1875    0.0000 N   0  0  0  0  0  0  0  0  0  0  0  0
    0.2292    0.1958    0.0000 C   0  0  0  0  0  0  0  0  0  0  0  0
    4.8375   -0.1875    0.0000 C   0  0  0  0  0  0  0  0  0  0  0  0
    5.4917    0.1833    0.0000 C   0  0  0  0  0  0  0  0  0  0  0  0
    0.8792   -0.1917    0.0000 C   0  0  0  0  0  0  0  0  0  0  0  0
    3.4667   -1.0417    0.0000 O   0  0  0  0  0  0  0  0  0  0  0  0
    0.2417    0.9458    0.0000 C   0  0  0  0  0  0  0  0  0  0  0  0
    0.8917    1.3083    0.0000 C   0  0  0  0  0  0  0  0  0  0  0  0
    1.5292    0.1750    0.0000 C   0  0  0  0  0  0  0  0  0  0  0  0
    2.1792   -0.2042    0.0000 O   0  0  0  0  0  0  0  0  0  0  0  0
    2.8292    0.1625    0.0000 C   0  0  0  0  0  0  0  0  0  0  0  0
    6.1417   -0.1917    0.0000 C   0  0  0  0  0  0  0  0  0  0  0  0
    1.5417    0.9250    0.0000 C   0  0  0  0  0  0  0  0  0  0  0  0
    6.7917    0.1750    0.0000 I   0  0  0  0  0  0  0  0  0  0  0  0
    5.4792   -1.3167    0.0000 C   0  0  0  0  0  0  0  0  0  0  0  0
    4.8375   -0.9375    0.0000 C   0  0  0  0  0  0  0  0  0  0  0  0
   -0.4208   -0.1792    0.0000 C   0  0  0  0  0  0  0  0  0  0  0  0
    6.1292   -0.9417    0.0000 C   0  0  0  0  0  0  0  0  0  0  0  0
   -0.4083    1.3208    0.0000 C   0  0  0  0  0  0  0  0  0  0  0  0
   -1.0708    0.2083    0.0000 C   0  0  0  0  0  0  0  0  0  0  0  0
   -1.0583    0.9583    0.0000 C   0  0  0  0  0  0  0  0  0  0  0  0
  2  1  1  0  0  0  0
  3  6  1  0  0  0  0
  4  2  1  0  0  0  0
  5  4  1  0  0  0  0
  6 10  2  0  0  0  0
  7  1  2  0  0  0  0
  8  9  1  0  0  0  0
  9 14  2  0  0  0  0
 10 11  1  0  0  0  0
 11 12  1  0  0  0  0
 12  1  1  0  0  0  0
 13  5  2  0  0  0  0
 14 10  1  0  0  0  0
 15 13  1  0  0  0  0
 16 17  1  0  0  0  0
 17  4  2  0  0  0  0
 18  3  2  0  0  0  0
 19 16  2  0  0  0  0
 20  8  2  0  0  0  0
 21 18  1  0  0  0  0
 22 20  1  0  0  0  0
 13 19  1  0  0  0  0
  8  3  1  0  0  0  0
 22 21  2  0  0  0  0
M  END
>  <ID> (6134262)
6134262

>  <Supplier> (6134262)
ChemBridge

>  <clogP> (6134262)
5.230000000000000e+000

>  <RB> (6134262)
4

>  <tPSA> (6134262)
3.833000000000000e+001

>  <Hacc> (6134262)
2

>  <Hdon> (6134262)
1

>  <LogSw> (6134262)
-6.606000000000000e+000

>  <Group> (6134262)
3

>  <Core> (6134262)
315

$$$$
7850181
  -ISIS-  03310818272D

 19 19  0  0  0  0  0  0  0  0999 V2000
    2.3167    0.7708    0.0000 C   0  0  0  0  0  0  0  0  0  0  0  0
    5.6042    0.4625    0.0000 S   0  0  0  0  0  0  0  0  0  0  0  0
    4.9167    0.7708    0.0000 C   0  0  0  0  0  0  0  0  0  0  0  0
    2.3167    1.5208    0.0000 C   0  0  0  0  0  0  0  0  0  0  0  0
    1.6750    0.3958    0.0000 C   0  0  0  0  0  0  0  0  0  0  0  0
    6.1042    1.0208    0.0000 C   0  0  0  0  0  0  0  0  0  0  0  0
    5.0000    1.5125    0.0000 C   0  0  0  0  0  0  0  0  0  0  0  0
    5.7292    1.6708    0.0000 C   0  0  0  0  0  0  0  0  0  0  0  0
    1.6750    1.8958    0.0000 C   0  0  0  0  0  0  0  0  0  0  0  0
    3.6250    0.7708    0.0000 N   0  0  3  0  0  0  0  0  0  0  0  0
    1.0250    0.7708    0.0000 C   0  0  0  0  0  0  0  0  0  0  0  0
    2.9750    0.3958    0.0000 C   0  0  0  0  0  0  0  0  0  0  0  0
    1.0250    1.5208    0.0000 C   0  0  0  0  0  0  0  0  0  0  0  0
    0.3750    0.3958    0.0000 Br  0  0  0  0  0  0  0  0  0  0  0  0
    3.2167    3.3958    0.0000 Cl  0  0  0  0  0  0  0  0  0  0  0  0
    2.9750    1.8958    0.0000 O   0  0  0  0  0  0  0  0  0  0  0  0
    4.2750    0.3958    0.0000 C   0  0  0  0  0  0  0  0  0  0  0  0
    2.9750    2.6458    0.0000 C   0  0  0  0  0  0  0  0  0  0  0  0
    3.6250    1.5208    0.0000 H   0  0  0  0  0  0  0  0  0  0  0  0
  2  3  1  0  0  0  0
  3 17  1  0  0  0  0
  4  1  1  0  0  0  0
  5  1  2  0  0  0  0
  6  2  1  0  0  0  0
  7  3  2  0  0  0  0
  8  7  1  0  0  0  0
  9  4  2  0  0  0  0
 10 12  1  0  0  0  0
 11  5  1  0  0  0  0
 12  1  1  0  0  0  0
 13 11  2  0  0  0  0
 14 11  1  0  0  0  0
 16  4  1  0  0  0  0
 17 10  1  0  0  0  0
 18 16  1  0  0  0  0
 19 10  1  0  0  0  0
  9 13  1  0  0  0  0
  8  6  2  0  0  0  0
M  END
>  <ID> (7850181)
7850181

>  <Supplier> (7850181)
ChemBridge

>  <clogP> (7850181)
3.250000000000000e+000

>  <RB> (7850181)
4

>  <tPSA> (7850181)
2.126000000000000e+001

>  <Hacc> (7850181)
2

>  <Hdon> (7850181)
1

>  <LogSw> (7850181)
-3.245000000000000e+000

>  <Group> (7850181)
1

>  <Core> (7850181)
190

$$$$
7850183
  -ISIS-  03310818272D

 35 38  0  0  0  0  0  0  0  0999 V2000
    2.3417    3.1333    0.0000 N   0  0  3  0  0  0  0  0  0  0  0  0
    1.6625    3.4333    0.0000 C   0  0  0  0  0  0  0  0  0  0  0  0
    2.2667    2.3833    0.0000 C   0  0  0  0  0  0  0  0  0  0  0  0
    1.1542    2.8750    0.0000 C   0  0  3  0  0  0  0  0  0  0  0  0
    1.5292    2.2333    0.0000 C   0  0  0  0  0  0  0  0  0  0  0  0
    0.1042    3.6458    0.0000 C   0  0  0  0  0  0  0  0  0  0  0  0
    0.4125    2.9583    0.0000 N   0  0  3  0  0  0  0  0  0  0  0  0
   -0.6375    3.7208    0.0000 N   0  0  0  0  0  0  0  0  0  0  0  0
    2.9917    3.5083    0.0000 C   0  0  0  0  0  0  0  0  0  0  0  0
    1.5042    4.1542    0.0000 O   0  0  0  0  0  0  0  0  0  0  0  0
    2.8250    1.8833    0.0000 O   0  0  0  0  0  0  0  0  0  0  0  0
   -0.0250    2.3500    0.0000 C   0  0  0  0  0  0  0  0  0  0  0  0
    0.5500    4.2417    0.0000 O   0  0  0  0  0  0  0  0  0  0  0  0
    3.6417    3.1333    0.0000 C   0  0  0  0  0  0  0  0  0  0  0  0
    2.9917    4.2500    0.0000 C   0  0  0  0  0  0  0  0  0  0  0  0
   -0.9458    4.4000    0.0000 C   0  0  0  0  0  0  0  0  0  0  0  0
   -0.7750    2.4250    0.0000 C   0  0  0  0  0  0  0  0  0  0  0  0
   -1.5583    5.7667    0.0000 C   0  0  0  0  0  0  0  0  0  0  0  0
    4.2917    4.2500    0.0000 C   0  0  0  0  0  0  0  0  0  0  0  0
   -2.2708    2.5833    0.0000 C   0  0  0  0  0  0  0  0  0  0  0  0
    3.6417    4.6250    0.0000 C   0  0  0  0  0  0  0  0  0  0  0  0
    4.2917    3.5083    0.0000 C   0  0  0  0  0  0  0  0  0  0  0  0
   -1.8583    6.4542    0.0000 Cl  0  0  0  0  0  0  0  0  0  0  0  0
   -1.6875    4.4792    0.0000 C   0  0  0  0  0  0  0  0  0  0  0  0
   -0.5000    5.0042    0.0000 C   0  0  0  0  0  0  0  0  0  0  0  0
   -1.2125    1.8208    0.0000 C   0  0  0  0  0  0  0  0  0  0  0  0
   -1.0833    3.1125    0.0000 C   0  0  0  0  0  0  0  0  0  0  0  0
   -0.8083    5.6917    0.0000 C   0  0  0  0  0  0  0  0  0  0  0  0
   -1.9958    5.1542    0.0000 C   0  0  0  0  0  0  0  0  0  0  0  0
   -1.8250    3.1958    0.0000 C   0  0  0  0  0  0  0  0  0  0  0  0
   -1.9583    1.9000    0.0000 C   0  0  0  0  0  0  0  0  0  0  0  0
   -3.0125    2.6625    0.0000 O   0  0  0  0  0  0  0  0  0  0  0  0
    4.9417    4.6250    0.0000 O   0  0  0  0  0  0  0  0  0  0  0  0
   -3.4500    2.0583    0.0000 C   0  0  0  0  0  0  0  0  0  0  0  0
    5.5917    4.2500    0.0000 C   0  0  0  0  0  0  0  0  0  0  0  0
  2  1  1  0  0  0  0
  3  1  1  0  0  0  0
  4  2  1  0  0  0  0
  5  3  1  0  0  0  0
  6  7  1  0  0  0  0
  7  4  1  0  0  0  0
  8  6  1  0  0  0  0
  9  1  1  0  0  0  0
 10  2  2  0  0  0  0
 11  3  2  0  0  0  0
 12  7  1  0  0  0  0
 13  6  2  0  0  0  0
 14  9  1  0  0  0  0
 15  9  2  0  0  0  0
 16  8  1  0  0  0  0
 17 12  1  0  0  0  0
 18 28  1  0  0  0  0
 19 21  2  0  0  0  0
 20 30  2  0  0  0  0
 21 15  1  0  0  0  0
 22 14  2  0  0  0  0
 23 18  1  0  0  0  0
 24 16  2  0  0  0  0
 25 16  1  0  0  0  0
 26 17  1  0  0  0  0
 27 17  2  0  0  0  0
 28 25  2  0  0  0  0
 29 24  1  0  0  0  0
 30 27  1  0  0  0  0
 31 26  2  0  0  0  0
 32 20  1  0  0  0  0
 33 19  1  0  0  0  0
 34 32  1  0  0  0  0
 35 33  1  0  0  0  0
  4  5  1  0  0  0  0
 22 19  1  0  0  0  0
 31 20  1  0  0  0  0
 29 18  2  0  0  0  0
M  END
>  <ID> (7850183)
7850183

>  <Supplier> (7850183)
ChemBridge

>  <clogP> (7850183)
5.116999999999996e+000

>  <RB> (7850183)
5

>  <tPSA> (7850183)
8.818000000000001e+001

>  <Hacc> (7850183)
5

>  <Hdon> (7850183)
1

>  <LogSw> (7850183)
-7.170000000000000e+000

>  <Group> (7850183)
1

>  <Core> (7850183)
126

$$$$
5431161
  -ISIS-  03310818222D

 17 18  0  0  0  0  0  0  0  0999 V2000
   -1.9708    2.2125    0.0000 N   0  0  3  0  0  0  0  0  0  0  0  0
   -3.3125    3.0000    0.0000 O   0  0  0  0  0  0  0  0  0  0  0  0
   -3.3125    2.2125    0.0000 C   0  0  3  0  0  0  0  0  0  0  0  0
   -2.6333    3.4000    0.0000 C   0  0  3  0  0  0  0  0  0  0  0  0
   -2.6333    1.8208    0.0000 C   0  0  0  0  0  0  0  0  0  0  0  0
   -1.9708    3.0000    0.0000 C   0  0  0  0  0  0  0  0  0  0  0  0
   -1.2833    1.8208    0.0000 C   0  0  0  0  0  0  0  0  0  0  0  0
    0.7667    2.2125    0.0000 C   0  0  0  0  0  0  0  0  0  0  0  0
   -0.5958    2.2125    0.0000 C   0  0  0  0  0  0  0  0  0  0  0  0
    0.0875    1.8125    0.0000 C   0  0  0  0  0  0  0  0  0  0  0  0
   -2.6333    4.1875    0.0000 C   0  0  0  0  0  0  0  0  0  0  0  0
   -4.0208    1.8000    0.0000 C   0  0  0  0  0  0  0  0  0  0  0  0
    0.7667    3.0000    0.0000 C   0  0  0  0  0  0  0  0  0  0  0  0
    1.4500    1.8125    0.0000 C   0  0  0  0  0  0  0  0  0  0  0  0
    2.1292    2.2125    0.0000 C   0  0  0  0  0  0  0  0  0  0  0  0
    1.4500    3.3958    0.0000 C   0  0  0  0  0  0  0  0  0  0  0  0
    2.1292    3.0000    0.0000 C   0  0  0  0  0  0  0  0  0  0  0  0
  2  4  1  0  0  0  0
  3  5  1  0  0  0  0
  4  6  1  0  0  0  0
  5  1  1  0  0  0  0
  6  1  1  0  0  0  0
  7  1  1  0  0  0  0
  8 10  1  0  0  0  0
  9  7  1  0  0  0  0
 10  9  1  0  0  0  0
 11  4  1  0  0  0  0
 12  3  1  0  0  0  0
 13  8  2  0  0  0  0
 14  8  1  0  0  0  0
 15 14  2  0  0  0  0
 16 13  1  0  0  0  0
 17 15  1  0  0  0  0
  2  3  1  0  0  0  0
 16 17  2  0  0  0  0
M  END
>  <ID> (5431161)
5431161

>  <Supplier> (5431161)
ChemBridge

>  <clogP> (5431161)
3.560000000000000e+000

>  <RB> (5431161)
4

>  <tPSA> (5431161)
1.247000000000000e+001

>  <Hacc> (5431161)
2

>  <Hdon> (5431161)
0

>  <LogSw> (5431161)
-2.935000000000000e+000

>  <Group> (5431161)
3

$$$$
6911556
  -ISIS-  03310818242D

 15 15  0  0  0  0  0  0  0  0999 V2000
   -1.0500    1.2000    0.0000 C   0  0  0  0  0  0  0  0  0  0  0  0
   -0.3708    0.0000    0.0000 N   0  0  0  0  0  0  0  0  0  0  0  0
    1.0500    0.0000    0.0000 C   0  0  0  0  0  0  0  0  0  0  0  0
    1.7292   -1.2042    0.0000 C   0  0  0  0  0  0  0  0  0  0  0  0
   -0.3708    2.4125    0.0000 S   0  0  0  0  0  0  0  0  0  0  0  0
    3.1542   -1.2042    0.0000 C   0  0  0  0  0  0  0  0  0  0  0  0
    1.7292    1.2000    0.0000 C   0  0  0  0  0  0  0  0  0  0  0  0
   -2.4625    1.2000    0.0000 N   0  0  0  0  0  0  0  0  0  0  0  0
    3.8500    0.0000    0.0000 C   0  0  0  0  0  0  0  0  0  0  0  0
    3.1542    1.2000    0.0000 C   0  0  0  0  0  0  0  0  0  0  0  0
    5.2500    0.0000    0.0000 Cl  0  0  0  0  0  0  0  0  0  0  0  0
    1.0000   -2.4042    0.0000 C   0  0  0  0  0  0  0  0  0  0  0  0
   -3.1500   -0.0042    0.0000 C   0  0  0  0  0  0  0  0  0  0  0  0
   -4.5458   -0.0042    0.0000 C   0  0  0  0  0  0  0  0  0  0  0  0
   -5.2500   -1.2000    0.0000 C   0  0  0  0  0  0  0  0  0  0  0  0
  2  1  1  0  0  0  0
  3  2  1  0  0  0  0
  4  3  2  0  0  0  0
  5  1  2  0  0  0  0
  6  4  1  0  0  0  0
  7  3  1  0  0  0  0
  8  1  1  0  0  0  0
  9 10  1  0  0  0  0
 10  7  2  0  0  0  0
 11  9  1  0  0  0  0
 12  4  1  0  0  0  0
 13  8  1  0  0  0  0
 14 13  1  0  0  0  0
 15 14  1  0  0  0  0
  6  9  2  0  0  0  0
M  END
>  <ID> (6911556)
6911556

>  <Supplier> (6911556)
ChemBridge

>  <clogP> (6911556)
2.890000000000000e+000

>  <RB> (6911556)
1

>  <tPSA> (6911556)
2.406000000000000e+001

>  <Hacc> (6911556)
0

>  <Hdon> (6911556)
2

>  <LogSw> (6911556)
-2.431000000000000e+000

>  <Group> (6911556)
1

$$$$
7205785
  -ISIS-  03310818262D

 21 22  0  0  0  0  0  0  0  0999 V2000
    4.9000    4.2917    0.0000 C   0  0  0  0  0  0  0  0  0  0  0  0
    3.7000    3.6083    0.0000 C   0  0  3  0  0  0  0  0  0  0  0  0
    3.7000    2.1000    0.0000 C   0  0  3  0  0  0  0  0  0  0  0  0
    6.1000    3.6083    0.0000 N   0  0  0  0  0  0  0  0  0  0  0  0
    4.9000    1.4000    0.0000 C   0  0  0  0  0  0  0  0  0  0  0  0
    2.5000    1.4000    0.0000 C   0  0  0  0  0  0  0  0  0  0  0  0
    7.3000    4.2917    0.0000 C   0  0  0  0  0  0  0  0  0  0  0  0
    1.2000    3.6083    0.0000 C   0  0  0  0  0  0  0  0  0  0  0  0
    1.2000    2.1000    0.0000 C   0  0  0  0  0  0  0  0  0  0  0  0
    2.5000    4.2917    0.0000 C   0  0  0  0  0  0  0  0  0  0  0  0
    4.9000    5.7000    0.0000 O   0  0  0  0  0  0  0  0  0  0  0  0
    4.9000    0.0000    0.0000 O   0  0  0  0  0  0  0  0  0  0  0  0
    8.6000    3.6083    0.0000 C   0  0  0  0  0  0  0  0  0  0  0  0
    0.0000    4.2000    0.0000 Cl  0  0  0  0  0  0  0  0  0  0  0  0
    6.1000    2.1000    0.0000 O   0  0  0  0  0  0  0  0  0  0  0  0
    8.6000    2.1000    0.0000 O   0  0  0  0  0  0  0  0  0  0  0  0
    7.3000    5.7000    0.0000 C   0  0  0  0  0  0  0  0  0  0  0  0
    9.8000    4.2000    0.0000 C   0  0  0  0  0  0  0  0  0  0  0  0
    9.8000    1.4000    0.0000 C   0  0  0  0  0  0  0  0  0  0  0  0
    8.6000    6.4000    0.0000 C   0  0  0  0  0  0  0  0  0  0  0  0
    9.8000    5.7000    0.0000 C   0  0  0  0  0  0  0  0  0  0  0  0
  2  1  1  0  0  0  0
  3  2  1  0  0  0  0
  4  1  1  0  0  0  0
  5  3  1  0  0  0  0
  6  3  1  0  0  0  0
  7  4  1  0  0  0  0
  8 10  1  0  0  0  0
  9  8  2  0  0  0  0
 10  2  1  0  0  0  0
 11  1  2  0  0  0  0
 12  5  2  0  0  0  0
 13  7  2  0  0  0  0
 14  8  1  0  0  0  0
 15  5  1  0  0  0  0
 16 13  1  0  0  0  0
 17  7  1  0  0  0  0
 18 13  1  0  0  0  0
 19 16  1  0  0  0  0
 20 17  2  0  0  0  0
 21 20  1  0  0  0  0
  6  9  1  0  0  0  0
 21 18  2  0  0  0  0
M  END
>  <ID> (7205785)
7205785

>  <Supplier> (7205785)
ChemBridge

>  <clogP> (7205785)
1.870000000000000e+000

>  <RB> (7205785)
3

>  <tPSA> (7205785)
7.563000000000000e+001

>  <Hacc> (7205785)
4

>  <Hdon> (7205785)
2

>  <LogSw> (7205785)
-3.056000000000000e+000

>  <Group> (7205785)
3

$$$$
5431164
  -ISIS-  03310818222D

 21 23  0  0  0  0  0  0  0  0999 V2000
   -3.9333    3.3000    0.0000 C   0  0  0  0  0  0  0  0  0  0  0  0
   -3.2625    2.9333    0.0000 N   0  0  3  0  0  0  0  0  0  0  0  0
   -1.9083    2.1208    0.0000 N   0  0  3  0  0  0  0  0  0  0  0  0
   -3.9333    4.0875    0.0000 N   0  0  0  0  0  0  0  0  0  0  0  0
   -4.6125    2.9333    0.0000 N   0  0  0  0  0  0  0  0  0  0  0  0
   -2.5833    3.3000    0.0000 C   0  0  0  0  0  0  0  0  0  0  0  0
   -3.2625    2.1208    0.0000 C   0  0  0  0  0  0  0  0  0  0  0  0
   -2.5833    1.7458    0.0000 C   0  0  0  0  0  0  0  0  0  0  0  0
   -1.9083    2.9333    0.0000 C   0  0  0  0  0  0  0  0  0  0  0  0
   -1.2333    1.7458    0.0000 C   0  0  0  0  0  0  0  0  0  0  0  0
   -5.2708    4.0875    0.0000 C   0  0  0  0  0  0  0  0  0  0  0  0
   -5.2708    3.3000    0.0000 C   0  0  0  0  0  0  0  0  0  0  0  0
   -4.6125    4.5000    0.0000 C   0  0  0  0  0  0  0  0  0  0  0  0
    0.7667    2.2125    0.0000 C   0  0  0  0  0  0  0  0  0  0  0  0
   -0.5958    2.2125    0.0000 C   0  0  0  0  0  0  0  0  0  0  0  0
    0.0875    1.8125    0.0000 C   0  0  0  0  0  0  0  0  0  0  0  0
    0.7667    3.0000    0.0000 C   0  0  0  0  0  0  0  0  0  0  0  0
    1.4500    1.8125    0.0000 C   0  0  0  0  0  0  0  0  0  0  0  0
    2.1292    2.2125    0.0000 C   0  0  0  0  0  0  0  0  0  0  0  0
    1.4500    3.3958    0.0000 C   0  0  0  0  0  0  0  0  0  0  0  0
    2.1292    3.0000    0.0000 C   0  0  0  0  0  0  0  0  0  0  0  0
  2  1  1  0  0  0  0
  3  8  1  0  0  0  0
  4  1  2  0  0  0  0
  5  1  1  0  0  0  0
  6  2  1  0  0  0  0
  7  2  1  0  0  0  0
  8  7  1  0  0  0  0
  9  6  1  0  0  0  0
 10  3  1  0  0  0  0
 11 12  1  0  0  0  0
 12  5  2  0  0  0  0
 13  4  1  0  0  0  0
 14 16  1  0  0  0  0
 15 10  1  0  0  0  0
 16 15  1  0  0  0  0
 17 14  2  0  0  0  0
 18 14  1  0  0  0  0
 19 18  2  0  0  0  0
 20 17  1  0  0  0  0
 21 19  1  0  0  0  0
 11 13  2  0  0  0  0
  9  3  1  0  0  0  0
 20 21  2  0  0  0  0
M  END
>  <ID> (5431164)
5431164

>  <Supplier> (5431164)
ChemBridge

>  <clogP> (5431164)
2.680000000000000e+000

>  <RB> (5431164)
5

>  <tPSA> (5431164)
3.226000000000000e+001

>  <Hacc> (5431164)
3

>  <Hdon> (5431164)
0

>  <LogSw> (5431164)
-2.541000000000000e+000

>  <Group> (5431164)
3

>  <Core> (5431164)
162

$$$$
5431167
  -ISIS-  03310818222D

 21 23  0  0  0  0  0  0  0  0999 V2000
   -0.5958    2.2125    0.0000 C   0  0  0  0  0  0  0  0  0  0  0  0
   -1.9708    2.2125    0.0000 N   0  0  3  0  0  0  0  0  0  0  0  0
   -0.5958    2.9958    0.0000 C   0  0  0  0  0  0  0  0  0  0  0  0
   -1.2833    1.8208    0.0000 C   0  0  0  0  0  0  0  0  0  0  0  0
    0.0792    1.8500    0.0000 C   0  0  0  0  0  0  0  0  0  0  0  0
    0.0792    3.3833    0.0000 C   0  0  0  0  0  0  0  0  0  0  0  0
   -2.6333    1.8208    0.0000 C   0  0  0  0  0  0  0  0  0  0  0  0
    0.7500    2.2125    0.0000 C   0  0  0  0  0  0  0  0  0  0  0  0
    0.7500    2.9958    0.0000 C   0  0  0  0  0  0  0  0  0  0  0  0
   -3.3125    2.2125    0.0000 C   0  0  3  0  0  0  0  0  0  0  0  0
   -1.9708    3.0000    0.0000 C   0  0  0  0  0  0  0  0  0  0  0  0
    0.0792    1.0833    0.0000 O   0  0  0  0  0  0  0  0  0  0  0  0
   -4.6625    2.1958    0.0000 O   0  0  0  0  0  0  0  0  0  0  0  0
   -1.2708    3.3833    0.0000 C   0  0  0  0  0  0  0  0  0  0  0  0
   -2.6333    3.4000    0.0000 C   0  0  0  0  0  0  0  0  0  0  0  0
   -3.9958    1.8125    0.0000 C   0  0  0  0  0  0  0  0  0  0  0  0
   -3.3125    3.0000    0.0000 C   0  0  0  0  0  0  0  0  0  0  0  0
    0.0792    4.1542    0.0000 C   0  0  0  0  0  0  0  0  0  0  0  0
    0.7375    0.6833    0.0000 C   0  0  0  0  0  0  0  0  0  0  0  0
   -1.2708    4.1500    0.0000 C   0  0  0  0  0  0  0  0  0  0  0  0
   -0.5958    4.5292    0.0000 C   0  0  0  0  0  0  0  0  0  0  0  0
  2  4  1  0  0  0  0
  3  1  2  0  0  0  0
  4  1  1  0  0  0  0
  5  1  1  0  0  0  0
  6  3  1  0  0  0  0
  7  2  1  0  0  0  0
  8  5  2  0  0  0  0
  9  8  1  0  0  0  0
 10  7  1  0  0  0  0
 11  2  1  0  0  0  0
 12  5  1  0  0  0  0
 13 16  1  0  0  0  0
 14  3  1  0  0  0  0
 15 11  1  0  0  0  0
 16 10  1  0  0  0  0
 17 15  1  0  0  0  0
 18  6  1  0  0  0  0
 19 12  1  0  0  0  0
 20 14  2  0  0  0  0
 21 20  1  0  0  0  0
  6  9  2  0  0  0  0
 21 18  2  0  0  0  0
 17 10  1  0  0  0  0
M  END
>  <ID> (5431167)
5431167

>  <Supplier> (5431167)
ChemBridge

>  <clogP> (5431167)
2.790000000000000e+000

>  <RB> (5431167)
3

>  <tPSA> (5431167)
3.270000000000000e+001

>  <Hacc> (5431167)
3

>  <Hdon> (5431167)
1

>  <LogSw> (5431167)
-2.656000000000000e+000

>  <Group> (5431167)
3

$$$$
7114666
  -ISIS-  03310818252D

 19 21  0  0  0  0  0  0  0  0999 V2000
   -0.8458    0.4958    0.0000 C   0  0  0  0  0  0  0  0  0  0  0  0
   -0.8458   -0.2875    0.0000 C   0  0  0  0  0  0  0  0  0  0  0  0
   -0.1833    0.8708    0.0000 C   0  0  0  0  0  0  0  0  0  0  0  0
    0.4792    0.4958    0.0000 N   0  0  3  0  0  0  0  0  0  0  0  0
   -0.1833   -0.6667    0.0000 N   0  0  0  0  0  0  0  0  0  0  0  0
   -1.5833   -0.5042    0.0000 S   0  0  0  0  0  0  0  0  0  0  0  0
   -1.5833    0.7333    0.0000 C   0  0  0  0  0  0  0  0  0  0  0  0
    0.4792   -0.2667    0.0000 C   0  0  0  0  0  0  0  0  0  0  0  0
   -2.0000    0.0958    0.0000 C   0  0  0  0  0  0  0  0  0  0  0  0
    1.1375    0.8708    0.0000 C   0  0  0  0  0  0  0  0  0  0  0  0
   -0.1833    1.6500    0.0000 O   0  0  0  0  0  0  0  0  0  0  0  0
    1.8000    0.4958    0.0000 C   0  0  0  0  0  0  0  0  0  0  0  0
    1.1375    1.6333    0.0000 C   0  0  0  0  0  0  0  0  0  0  0  0
    2.4542    1.6333    0.0000 C   0  0  0  0  0  0  0  0  0  0  0  0
   -1.8458    1.4500    0.0000 C   0  0  0  0  0  0  0  0  0  0  0  0
    1.8000    2.0208    0.0000 C   0  0  0  0  0  0  0  0  0  0  0  0
    2.4542    0.8708    0.0000 C   0  0  0  0  0  0  0  0  0  0  0  0
    3.1375    1.9958    0.0000 I   0  0  0  0  0  0  0  0  0  0  0  0
   -2.7833    0.0958    0.0000 C   0  0  0  0  0  0  0  0  0  0  0  0
  2  1  2  0  0  0  0
  3  1  1  0  0  0  0
  4  3  1  0  0  0  0
  5  2  1  0  0  0  0
  6  2  1  0  0  0  0
  7  1  1  0  0  0  0
  8  4  1  0  0  0  0
  9  7  2  0  0  0  0
 10  4  1  0  0  0  0
 11  3  2  0  0  0  0
 12 10  1  0  0  0  0
 13 10  2  0  0  0  0
 14 16  2  0  0  0  0
 15  7  1  0  0  0  0
 16 13  1  0  0  0  0
 17 12  2  0  0  0  0
 18 14  1  0  0  0  0
 19  9  1  0  0  0  0
  9  6  1  0  0  0  0
  5  8  2  0  0  0  0
 14 17  1  0  0  0  0
M  END
>  <ID> (7114666)
7114666

>  <Supplier> (7114666)
ChemBridge

>  <clogP> (7114666)
3.800000000000000e+000

>  <RB> (7114666)
1

>  <tPSA> (7114666)
3.489000000000000e+001

>  <Hacc> (7114666)
2

>  <Hdon> (7114666)
0

>  <LogSw> (7114666)
-5.232000000000000e+000

>  <Group> (7114666)
3

>  <Core> (7114666)
063

$$$$
7331407
  -ISIS-  03310818262D

 24 26  0  0  0  0  0  0  0  0999 V2000
    3.2875   -3.3417    0.0000 N   0  0  0  0  0  0  0  0  0  0  0  0
    2.7292   -3.9542    0.0000 C   0  0  0  0  0  0  0  0  0  0  0  0
    3.1417   -4.6792    0.0000 N   0  0  0  0  0  0  0  0  0  0  0  0
    4.0417   -3.6792    0.0000 C   0  0  0  0  0  0  0  0  0  0  0  0
    3.9542   -4.5042    0.0000 O   0  0  0  0  0  0  0  0  0  0  0  0
    0.5875   -4.4375    0.0000 C   0  0  0  0  0  0  0  0  0  0  0  0
    1.4125   -4.5292    0.0000 C   0  0  0  0  0  0  0  0  0  0  0  0
    6.8917   -3.6667    0.0000 C   0  0  0  0  0  0  0  0  0  0  0  0
    0.0917   -5.1042    0.0000 C   0  0  0  0  0  0  0  0  0  0  0  0
    1.9042   -3.8625    0.0000 C   0  0  0  0  0  0  0  0  0  0  0  0
    6.1792   -3.2542    0.0000 C   0  0  0  0  0  0  0  0  0  0  0  0
    5.4750   -3.6750    0.0000 O   0  0  0  0  0  0  0  0  0  0  0  0
    7.6000   -3.2500    0.0000 C   0  0  0  0  0  0  0  0  0  0  0  0
    4.7542   -3.2667    0.0000 C   0  0  0  0  0  0  0  0  0  0  0  0
    1.7417   -5.2917    0.0000 C   0  0  0  0  0  0  0  0  0  0  0  0
    0.4250   -5.8667    0.0000 C   0  0  0  0  0  0  0  0  0  0  0  0
    0.2542   -3.6792    0.0000 Cl  0  0  0  0  0  0  0  0  0  0  0  0
    1.2500   -5.9542    0.0000 C   0  0  0  0  0  0  0  0  0  0  0  0
   -0.0708   -6.5292    0.0000 Cl  0  0  0  0  0  0  0  0  0  0  0  0
    6.8750   -2.0167    0.0000 C   0  0  0  0  0  0  0  0  0  0  0  0
    6.8917   -4.4917    0.0000 C   0  0  0  0  0  0  0  0  0  0  0  0
    6.1667   -2.4417    0.0000 C   0  0  0  0  0  0  0  0  0  0  0  0
    7.5917   -2.4292    0.0000 C   0  0  0  0  0  0  0  0  0  0  0  0
    8.3167   -3.6542    0.0000 C   0  0  0  0  0  0  0  0  0  0  0  0
  2  1  1  0  0  0  0
  3  2  2  0  0  0  0
  4  1  2  0  0  0  0
  5  4  1  0  0  0  0
  6  7  1  0  0  0  0
  7 10  1  0  0  0  0
  8 11  2  0  0  0  0
  9  6  2  0  0  0  0
 10  2  1  0  0  0  0
 11 12  1  0  0  0  0
 12 14  1  0  0  0  0
 13  8  1  0  0  0  0
 14  4  1  0  0  0  0
 15  7  2  0  0  0  0
 16 18  2  0  0  0  0
 17  6  1  0  0  0  0
 18 15  1  0  0  0  0
 19 16  1  0  0  0  0
 20 22  2  0  0  0  0
 21  8  1  0  0  0  0
 22 11  1  0  0  0  0
 23 20  1  0  0  0  0
 24 13  1  0  0  0  0
  3  5  1  0  0  0  0
  9 16  1  0  0  0  0
 13 23  2  0  0  0  0
M  END
>  <ID> (7331407)
7331407

>  <Supplier> (7331407)
ChemBridge

>  <clogP> (7331407)
5.392000000000000e+000

>  <RB> (7331407)
5

>  <tPSA> (7331407)
4.814999999999998e+001

>  <Hacc> (7331407)
4

>  <Hdon> (7331407)
0

>  <LogSw> (7331407)
-6.453000000000000e+000

>  <Group> (7331407)
1

>  <Core> (7331407)
201

$$$$
6777531
  -ISIS-  03310818242D

 28 31  0  0  0  0  0  0  0  0999 V2000
    4.9625    1.4875    0.0000 N   0  0  0  0  0  0  0  0  0  0  0  0
    5.8250    2.5833    0.0000 C   0  0  0  0  0  0  0  0  0  0  0  0
    5.0417    3.7583    0.0000 O   0  0  0  0  0  0  0  0  0  0  0  0
    3.7000    3.3708    0.0000 C   0  0  0  0  0  0  0  0  0  0  0  0
    3.6417    1.9708    0.0000 C   0  0  0  0  0  0  0  0  0  0  0  0
   14.1167    2.3708    0.0000 C   0  0  0  0  0  0  0  0  0  0  0  0
   12.7542    2.7083    0.0000 C   0  0  0  0  0  0  0  0  0  0  0  0
    2.5042    4.1042    0.0000 C   0  0  0  0  0  0  0  0  0  0  0  0
   14.5125    1.0208    0.0000 C   0  0  0  0  0  0  0  0  0  0  0  0
   11.4000    2.3958    0.0000 N   0  0  0  0  0  0  0  0  0  0  0  0
    2.4042    1.3125    0.0000 C   0  0  0  0  0  0  0  0  0  0  0  0
    1.2792    3.4583    0.0000 C   0  0  0  0  0  0  0  0  0  0  0  0
   15.1042    3.3833    0.0000 C   0  0  0  0  0  0  0  0  0  0  0  0
    7.2167    2.5375    0.0000 C   0  0  0  0  0  0  0  0  0  0  0  0
    1.2292    2.0583    0.0000 C   0  0  0  0  0  0  0  0  0  0  0  0
   12.7667    4.0917    0.0000 O   0  0  0  0  0  0  0  0  0  0  0  0
   15.8875    0.6708    0.0000 C   0  0  0  0  0  0  0  0  0  0  0  0
    7.8750    1.3083    0.0000 C   0  0  0  0  0  0  0  0  0  0  0  0
    7.9542    3.7208    0.0000 C   0  0  0  0  0  0  0  0  0  0  0  0
   10.0042    2.4375    0.0000 C   0  0  0  0  0  0  0  0  0  0  0  0
    2.5542    5.5042    0.0000 Cl  0  0  0  0  0  0  0  0  0  0  0  0
   13.5417    0.0000    0.0000 Cl  0  0  0  0  0  0  0  0  0  0  0  0
   16.4750    3.0458    0.0000 C   0  0  0  0  0  0  0  0  0  0  0  0
   16.8542    1.6833    0.0000 C   0  0  0  0  0  0  0  0  0  0  0  0
    0.0000    1.4083    0.0000 Cl  0  0  0  0  0  0  0  0  0  0  0  0
    9.2667    1.2583    0.0000 C   0  0  0  0  0  0  0  0  0  0  0  0
    9.3542    3.6708    0.0000 C   0  0  0  0  0  0  0  0  0  0  0  0
   18.2167    1.3375    0.0000 C   0  0  0  0  0  0  0  0  0  0  0  0
  2  1  2  0  0  0  0
  3  2  1  0  0  0  0
  4  5  2  0  0  0  0
  5  1  1  0  0  0  0
  6  7  1  0  0  0  0
  7 10  1  0  0  0  0
  8  4  1  0  0  0  0
  9  6  2  0  0  0  0
 10 20  1  0  0  0  0
 11  5  1  0  0  0  0
 12 15  1  0  0  0  0
 13  6  1  0  0  0  0
 14  2  1  0  0  0  0
 15 11  2  0  0  0  0
 16  7  2  0  0  0  0
 17  9  1  0  0  0  0
 18 14  1  0  0  0  0
 19 14  2  0  0  0  0
 20 27  2  0  0  0  0
 21  8  1  0  0  0  0
 22  9  1  0  0  0  0
 23 13  2  0  0  0  0
 24 23  1  0  0  0  0
 25 15  1  0  0  0  0
 26 18  2  0  0  0  0
 27 19  1  0  0  0  0
 28 24  1  0  0  0  0
  3  4  1  0  0  0  0
  8 12  2  0  0  0  0
 26 20  1  0  0  0  0
 17 24  2  0  0  0  0
M  END
>  <ID> (6777531)
6777531

>  <Supplier> (6777531)
ChemBridge

>  <clogP> (6777531)
6.170000000000000e+000

>  <RB> (6777531)
3

>  <tPSA> (6777531)
5.513000000000000e+001

>  <Hacc> (6777531)
3

>  <Hdon> (6777531)
1

>  <LogSw> (6777531)
-7.616000000000000e+000

>  <Group> (6777531)
1

>  <Core> (6777531)
068

$$$$
7412674
  -ISIS-  03310818262D

 26 28  0  0  0  0  0  0  0  0999 V2000
    2.3792   -0.6542    0.0000 N   0  0  0  0  0  0  0  0  0  0  0  0
    3.0375   -0.2792    0.0000 C   0  0  0  0  0  0  0  0  0  0  0  0
    1.7375   -0.2792    0.0000 C   0  0  0  0  0  0  0  0  0  0  0  0
    3.6875   -0.6542    0.0000 N   0  0  0  0  0  0  0  0  0  0  0  0
    4.9792   -1.4042    0.0000 N   0  0  3  0  0  0  0  0  0  0  0  0
    4.3375   -0.2792    0.0000 C   0  0  0  0  0  0  0  0  0  0  0  0
    4.9792   -0.6542    0.0000 C   0  0  0  0  0  0  0  0  0  0  0  0
    1.0875   -0.6542    0.0000 C   0  0  0  0  0  0  0  0  0  0  0  0
    3.0375    0.4708    0.0000 S   0  0  0  0  0  0  0  0  0  0  0  0
    1.7375    0.4708    0.0000 O   0  0  0  0  0  0  0  0  0  0  0  0
    0.4375   -0.2792    0.0000 C   0  0  0  0  0  0  0  0  0  0  0  0
   -0.2125   -0.6542    0.0000 C   0  0  0  0  0  0  0  0  0  0  0  0
    4.3292   -1.7792    0.0000 C   0  0  0  0  0  0  0  0  0  0  0  0
    5.6292   -1.7792    0.0000 C   0  0  0  0  0  0  0  0  0  0  0  0
   -0.8625   -0.2792    0.0000 O   0  0  0  0  0  0  0  0  0  0  0  0
    4.3375    0.4708    0.0000 C   0  0  0  0  0  0  0  0  0  0  0  0
    1.0875   -1.4042    0.0000 C   0  0  0  0  0  0  0  0  0  0  0  0
    5.6375   -0.2792    0.0000 C   0  0  0  0  0  0  0  0  0  0  0  0
    0.4375   -1.7792    0.0000 C   0  0  0  0  0  0  0  0  0  0  0  0
   -0.2125   -1.4042    0.0000 C   0  0  0  0  0  0  0  0  0  0  0  0
   -0.8625    0.4708    0.0000 C   0  0  0  0  0  0  0  0  0  0  0  0
    4.3292   -2.5292    0.0000 C   0  0  0  0  0  0  0  0  0  0  0  0
    5.6292   -2.5292    0.0000 C   0  0  0  0  0  0  0  0  0  0  0  0
    4.9792    0.8500    0.0000 C   0  0  0  0  0  0  0  0  0  0  0  0
    5.6375    0.4708    0.0000 C   0  0  0  0  0  0  0  0  0  0  0  0
    4.9792   -2.9042    0.0000 C   0  0  0  0  0  0  0  0  0  0  0  0
  2  1  1  0  0  0  0
  3  1  1  0  0  0  0
  4  2  1  0  0  0  0
  5  7  1  0  0  0  0
  6  4  1  0  0  0  0
  7  6  2  0  0  0  0
  8  3  1  0  0  0  0
  9  2  2  0  0  0  0
 10  3  2  0  0  0  0
 11  8  1  0  0  0  0
 12 11  2  0  0  0  0
 13  5  1  0  0  0  0
 14  5  1  0  0  0  0
 15 12  1  0  0  0  0
 16  6  1  0  0  0  0
 17  8  2  0  0  0  0
 18  7  1  0  0  0  0
 19 17  1  0  0  0  0
 20 19  2  0  0  0  0
 21 15  1  0  0  0  0
 22 13  1  0  0  0  0
 23 14  1  0  0  0  0
 24 16  2  0  0  0  0
 25 24  1  0  0  0  0
 26 23  1  0  0  0  0
 12 20  1  0  0  0  0
 18 25  2  0  0  0  0
 22 26  1  0  0  0  0
M  END
>  <ID> (7412674)
7412674

>  <Supplier> (7412674)
ChemBridge

>  <clogP> (7412674)
4.119000000000000e+000

>  <RB> (7412674)
3

>  <tPSA> (7412674)
5.359999999999999e+001

>  <Hacc> (7412674)
2

>  <Hdon> (7412674)
2

>  <LogSw> (7412674)
-6.240000000000000e+000

>  <Group> (7412674)
1

>  <Core> (7412674)
071

$$$$
7727322
  -ISIS-  03310818262D

 32 34  0  0  0  0  0  0  0  0999 V2000
    5.8042   -4.0417    0.0000 C   0  0  0  0  0  0  0  0  0  0  0  0
    4.4667   -4.0417    0.0000 N   0  0  3  0  0  0  0  0  0  0  0  0
    5.5500   -4.8292    0.0000 C   0  0  0  0  0  0  0  0  0  0  0  0
    4.7250   -4.8292    0.0000 C   0  0  0  0  0  0  0  0  0  0  0  0
    5.1375   -3.5625    0.0000 C   0  0  3  0  0  0  0  0  0  0  0  0
    6.5917   -3.7917    0.0000 C   0  0  0  0  0  0  0  0  0  0  0  0
    5.1500   -0.2542    0.0000 N   0  3  0  0  0  0  0  0  0  0  0  0
    7.2042   -4.3417    0.0000 C   0  0  0  0  0  0  0  0  0  0  0  0
    3.6875   -3.7917    0.0000 C   0  0  0  0  0  0  0  0  0  0  0  0
    7.9792   -4.0792    0.0000 C   0  0  0  0  0  0  0  0  0  0  0  0
    5.1500   -1.0875    0.0000 C   0  0  0  0  0  0  0  0  0  0  0  0
    5.1417   -2.7375    0.0000 C   0  0  0  0  0  0  0  0  0  0  0  0
    8.5917   -4.6292    0.0000 C   0  0  0  0  0  0  0  0  0  0  0  0
    5.8625    0.1583    0.0000 O   0  5  0  0  0  0  0  0  0  0  0  0
    4.2417   -5.5000    0.0000 O   0  0  0  0  0  0  0  0  0  0  0  0
    4.4292    0.1583    0.0000 O   0  0  0  0  0  0  0  0  0  0  0  0
    6.7667   -2.9792    0.0000 O   0  0  0  0  0  0  0  0  0  0  0  0
    8.4292   -5.4417    0.0000 C   0  0  0  0  0  0  0  0  0  0  0  0
    7.0292   -5.1500    0.0000 C   0  0  0  0  0  0  0  0  0  0  0  0
    6.0292   -5.5000    0.0000 O   0  0  0  0  0  0  0  0  0  0  0  0
    4.4292   -1.5042    0.0000 C   0  0  0  0  0  0  0  0  0  0  0  0
    5.8667   -1.5042    0.0000 C   0  0  0  0  0  0  0  0  0  0  0  0
    4.4292   -2.3292    0.0000 C   0  0  0  0  0  0  0  0  0  0  0  0
    5.8667   -2.3292    0.0000 C   0  0  0  0  0  0  0  0  0  0  0  0
    7.6375   -5.7000    0.0000 C   0  0  0  0  0  0  0  0  0  0  0  0
    3.0750   -4.3417    0.0000 C   0  0  0  0  0  0  0  0  0  0  0  0
    2.2917   -4.0875    0.0000 N   0  0  3  0  0  0  0  0  0  0  0  0
    9.3792   -4.3750    0.0000 Cl  0  0  0  0  0  0  0  0  0  0  0  0
    9.0375   -5.9917    0.0000 O   0  0  0  0  0  0  0  0  0  0  0  0
    2.1167   -3.2792    0.0000 C   0  0  0  0  0  0  0  0  0  0  0  0
    1.6792   -4.6417    0.0000 C   0  0  0  0  0  0  0  0  0  0  0  0
    9.8250   -5.7375    0.0000 C   0  0  0  0  0  0  0  0  0  0  0  0
  2  5  1  0  0  0  0
  3  1  2  0  0  0  0
  4  3  1  0  0  0  0
  5  1  1  0  0  0  0
  6  1  1  0  0  0  0
  7 11  1  0  0  0  0
  8  6  1  0  0  0  0
  9  2  1  0  0  0  0
 10  8  1  0  0  0  0
 11 22  2  0  0  0  0
 12  5  1  0  0  0  0
 13 10  2  0  0  0  0
 14  7  1  0  0  0  0
 15  4  2  0  0  0  0
 16  7  2  0  0  0  0
 17  6  2  0  0  0  0
 18 25  2  0  0  0  0
 19  8  2  0  0  0  0
 20  3  1  0  0  0  0
 21 23  2  0  0  0  0
 22 24  1  0  0  0  0
 23 12  1  0  0  0  0
 24 12  2  0  0  0  0
 25 19  1  0  0  0  0
 26  9  1  0  0  0  0
 27 26  1  0  0  0  0
 28 13  1  0  0  0  0
 29 18  1  0  0  0  0
 30 27  1  0  0  0  0
 31 27  1  0  0  0  0
 32 29  1  0  0  0  0
  4  2  1  0  0  0  0
 11 21  1  0  0  0  0
 13 18  1  0  0  0  0
M  CHG  2   7   1  14  -1
M  END
>  <ID> (7727322)
7727322

>  <Supplier> (7727322)
ChemBridge

>  <clogP> (7727322)
4.125999999999996e+000

>  <RB> (7727322)
5

>  <tPSA> (7727322)
1.132200000000000e+002

>  <Hacc> (7727322)
7

>  <Hdon> (7727322)
1

>  <LogSw> (7727322)
-4.279000000000002e+000

>  <Group> (7727322)
1

>  <Core> (7727322)
095

$$$$
7412676
  -ISIS-  03310818262D

 20 22  0  0  0  0  0  0  0  0999 V2000
   10.3542   -5.3917    0.0000 C   0  0  0  0  0  0  0  0  0  0  0  0
    9.6542   -6.1792    0.0000 C   0  0  0  0  0  0  0  0  0  0  0  0
   10.6875   -5.9667    0.0000 C   0  0  0  0  0  0  0  0  0  0  0  0
   10.2542   -6.4500    0.0000 O   0  0  0  0  0  0  0  0  0  0  0  0
    9.7292   -5.5375    0.0000 C   0  0  0  0  0  0  0  0  0  0  0  0
   10.6125   -4.8000    0.0000 C   0  0  0  0  0  0  0  0  0  0  0  0
    9.0917   -6.5042    0.0000 C   0  0  0  0  0  0  0  0  0  0  0  0
   11.3292   -6.0292    0.0000 O   0  0  0  0  0  0  0  0  0  0  0  0
    8.5292   -6.1792    0.0000 C   0  0  0  0  0  0  0  0  0  0  0  0
    9.0917   -7.1542    0.0000 C   0  0  0  0  0  0  0  0  0  0  0  0
   10.2292   -4.2792    0.0000 C   0  0  0  0  0  0  0  0  0  0  0  0
    7.9750   -7.1542    0.0000 C   0  0  0  0  0  0  0  0  0  0  0  0
    8.5292   -7.4792    0.0000 C   0  0  0  0  0  0  0  0  0  0  0  0
    7.9750   -6.5042    0.0000 C   0  0  0  0  0  0  0  0  0  0  0  0
    7.4042   -7.4792    0.0000 F   0  0  0  0  0  0  0  0  0  0  0  0
   10.4875   -3.6792    0.0000 C   0  0  0  0  0  0  0  0  0  0  0  0
    9.5792   -4.3500    0.0000 C   0  0  0  0  0  0  0  0  0  0  0  0
    9.2000   -3.8250    0.0000 C   0  0  0  0  0  0  0  0  0  0  0  0
   10.1000   -3.1625    0.0000 C   0  0  0  0  0  0  0  0  0  0  0  0
    9.4542   -3.2292    0.0000 C   0  0  0  0  0  0  0  0  0  0  0  0
  2  5  2  0  0  0  0
  3  1  1  0  0  0  0
  4  3  1  0  0  0  0
  5  1  1  0  0  0  0
  6  1  2  0  0  0  0
  7  2  1  0  0  0  0
  8  3  2  0  0  0  0
  9  7  2  0  0  0  0
 10  7  1  0  0  0  0
 11  6  1  0  0  0  0
 12 13  1  0  0  0  0
 13 10  2  0  0  0  0
 14  9  1  0  0  0  0
 15 12  1  0  0  0  0
 16 11  1  0  0  0  0
 17 11  2  0  0  0  0
 18 17  1  0  0  0  0
 19 16  2  0  0  0  0
 20 18  2  0  0  0  0
  2  4  1  0  0  0  0
 19 20  1  0  0  0  0
 14 12  2  0  0  0  0
M  END
>  <ID> (7412676)
7412676

>  <Supplier> (7412676)
ChemBridge

>  <clogP> (7412676)
4.457000000000000e+000

>  <RB> (7412676)
2

>  <tPSA> (7412676)
2.630000000000000e+001

>  <Hacc> (7412676)
2

>  <Hdon> (7412676)
0

>  <LogSw> (7412676)
-4.116999999999998e+000

>  <Group> (7412676)
1

>  <Core> (7412676)
309

$$$$
5952535
  -ISIS-  03310818232D

 22 24  0  0  0  0  0  0  0  0999 V2000
    0.6042    0.2833    0.0000 C   0  0  0  0  0  0  0  0  0  0  0  0
   -0.8958    0.8833    0.0000 C   0  0  0  0  0  0  0  0  0  0  0  0
   -0.4708    0.6000    0.0000 O   0  0  0  0  0  0  0  0  0  0  0  0
   -2.6958   -0.0167    0.0000 C   0  0  0  0  0  0  0  0  0  0  0  0
    0.4667    0.7833    0.0000 C   0  0  0  0  0  0  0  0  0  0  0  0
   -0.0708    0.9000    0.0000 C   0  0  0  0  0  0  0  0  0  0  0  0
    1.1000    0.1708    0.0000 C   0  0  0  0  0  0  0  0  0  0  0  0
   -2.2958    0.2833    0.0000 C   0  0  0  0  0  0  0  0  0  0  0  0
   -1.8708   -0.0167    0.0000 C   0  0  0  0  0  0  0  0  0  0  0  0
   -2.5333   -0.5000    0.0000 O   0  0  0  0  0  0  0  0  0  0  0  0
    0.2500   -0.0917    0.0000 C   0  0  0  0  0  0  0  0  0  0  0  0
   -0.7500    1.3625    0.0000 C   0  0  0  0  0  0  0  0  0  0  0  0
   -1.3708    0.7000    0.0000 C   0  0  0  0  0  0  0  0  0  0  0  0
   -0.1125   -0.4792    0.0000 N   0  0  0  0  0  0  0  0  0  0  0  0
   -1.4125    0.2000    0.0000 C   0  0  0  0  0  0  0  0  0  0  0  0
   -0.2500    1.3833    0.0000 C   0  0  0  0  0  0  0  0  0  0  0  0
   -2.2500    0.8000    0.0000 C   0  0  0  0  0  0  0  0  0  0  0  0
   -2.0333   -0.5000    0.0000 C   0  0  0  0  0  0  0  0  0  0  0  0
   -1.7958    1.0208    0.0000 C   0  0  0  0  0  0  0  0  0  0  0  0
   -3.1958    0.1458    0.0000 O   0  0  0  0  0  0  0  0  0  0  0  0
    1.4500    0.5333    0.0000 O   0  0  0  0  0  0  0  0  0  0  0  0
    1.2542   -0.3042    0.0000 N   0  0  0  0  0  0  0  0  0  0  0  0
  2  3  1  0  0  0  0
  3  6  1  0  0  0  0
  4  8  1  0  0  0  0
  5  1  2  0  0  0  0
  6  5  1  0  0  0  0
  7  1  1  0  0  0  0
  8 17  1  0  0  0  0
  9 15  1  0  0  0  0
 10 18  1  0  0  0  0
 11  1  1  0  0  0  0
 12 16  1  0  0  0  0
 13  2  1  0  0  0  0
 14 11  3  0  0  0  0
 15 13  2  0  0  0  0
 16  6  2  0  0  0  0
 17 19  2  0  0  0  0
 18  9  1  0  0  0  0
 19 13  1  0  0  0  0
 20  4  2  0  0  0  0
 21  7  2  0  0  0  0
 22  7  1  0  0  0  0
 12  2  2  0  0  0  0
  8  9  2  0  0  0  0
 10  4  1  0  0  0  0
M  END
>  <ID> (5952535)
5952535

>  <Supplier> (5952535)
ChemBridge

>  <clogP> (5952535)
1.880000000000000e+000

>  <RB> (5952535)
3

>  <tPSA> (5952535)
1.063200000000000e+002

>  <Hacc> (5952535)
5

>  <Hdon> (5952535)
1

>  <LogSw> (5952535)
-3.217000000000000e+000

>  <Group> (5952535)
3

>  <Core> (5952535)
109

$$$$
7490182
  -ISIS-  03310818262D

 27 31  0  0  0  0  0  0  0  0999 V2000
    2.6167    1.3333    0.0000 N   0  3  0  0  0  0  0  0  0  0  0  0
    2.6167    0.5083    0.0000 C   0  0  0  0  0  0  0  0  0  0  0  0
    1.9042    0.0958    0.0000 C   0  0  0  0  0  0  0  0  0  0  0  0
    1.1917    0.5083    0.0000 N   0  0  0  0  0  0  0  0  0  0  0  0
    0.4750    0.0958    0.0000 C   0  0  3  0  0  0  0  0  0  0  0  0
    0.4750   -0.7292    0.0000 C   0  0  3  0  0  0  0  0  0  0  0  0
   -0.2375    0.5125    0.0000 C   0  0  3  0  0  0  0  0  0  0  0  0
    2.6125   -1.9667    0.0000 N   0  0  3  0  0  0  0  0  0  0  0  0
    1.9000   -0.7292    0.0000 C   0  0  0  0  0  0  0  0  0  0  0  0
    2.6125   -1.1417    0.0000 C   0  0  0  0  0  0  0  0  0  0  0  0
    3.3292    0.0958    0.0000 C   0  0  0  0  0  0  0  0  0  0  0  0
    2.6042   -3.6167    0.0000 N   0  0  3  0  0  0  0  0  0  0  0  0
   -0.6500   -1.0250    0.0000 C   0  0  3  0  0  0  0  0  0  0  0  0
   -0.9458   -0.7292    0.0000 C   0  0  3  0  0  0  0  0  0  0  0  0
    3.3292    1.7458    0.0000 O   0  5  0  0  0  0  0  0  0  0  0  0
   -0.2375   -1.1375    0.0000 C   0  0  0  0  0  0  0  0  0  0  0  0
   -0.6583   -0.2000    0.0000 C   0  0  0  0  0  0  0  0  0  0  0  0
   -0.9458    0.0958    0.0000 C   0  0  0  0  0  0  0  0  0  0  0  0
    0.0542   -1.4417    0.0000 C   0  0  0  0  0  0  0  0  0  0  0  0
    1.9000    1.7458    0.0000 O   0  0  0  0  0  0  0  0  0  0  0  0
    3.3292   -0.7375    0.0000 C   0  0  0  0  0  0  0  0  0  0  0  0
    1.8917   -2.3792    0.0000 C   0  0  0  0  0  0  0  0  0  0  0  0
    3.3250   -2.3792    0.0000 C   0  0  0  0  0  0  0  0  0  0  0  0
   -1.3625   -1.4417    0.0000 C   0  0  0  0  0  0  0  0  0  0  0  0
    3.3167   -3.2042    0.0000 C   0  0  0  0  0  0  0  0  0  0  0  0
    1.8917   -3.2000    0.0000 C   0  0  0  0  0  0  0  0  0  0  0  0
    2.5917   -4.4417    0.0000 C   0  0  0  0  0  0  0  0  0  0  0  0
  2  1  1  0  0  0  0
  3  2  1  0  0  0  0
  4  3  1  0  0  0  0
  5  4  1  0  0  0  0
  6  5  1  0  0  0  0
  7  5  1  0  0  0  0
  8 10  1  0  0  0  0
  9  3  2  0  0  0  0
 10 21  2  0  0  0  0
 11  2  2  0  0  0  0
 12 25  1  0  0  0  0
 13 17  1  0  0  0  0
 14 18  1  0  0  0  0
 15  1  1  0  0  0  0
 16  6  1  0  0  0  0
 17  7  1  0  0  0  0
 18  7  1  0  0  0  0
 19  6  1  0  0  0  0
 20  1  2  0  0  0  0
 21 11  1  0  0  0  0
 22  8  1  0  0  0  0
 23  8  1  0  0  0  0
 24 14  1  0  0  0  0
 25 23  1  0  0  0  0
 26 22  1  0  0  0  0
 27 12  1  0  0  0  0
  9 10  1  0  0  0  0
 19 13  1  0  0  0  0
 16 14  1  0  0  0  0
 26 12  1  0  0  0  0
 24 13  1  0  0  0  0
M  CHG  2   1   1  15  -1
M  END
>  <ID> (7490182)
7490182

>  <Supplier> (7490182)
ChemBridge

>  <clogP> (7490182)
4.336000000000000e+000

>  <RB> (7490182)
3

>  <tPSA> (7490182)
6.164999999999998e+001

>  <Hacc> (7490182)
3

>  <Hdon> (7490182)
1

>  <LogSw> (7490182)
-5.003000000000000e+000

>  <Group> (7490182)
1

>  <Core> (7490182)
162

$$$$
7114669
  -ISIS-  03310818252D

 20 22  0  0  0  0  0  0  0  0999 V2000
   -0.9833   -4.4167    0.0000 C   0  0  0  0  0  0  0  0  0  0  0  0
   -2.6208   -2.1667    0.0000 N   0  0  0  0  0  0  0  0  0  0  0  0
   -2.6125   -6.6750    0.0000 N   0  0  3  0  0  0  0  0  0  0  0  0
    5.9375  -11.6042    0.0000 C   0  0  0  0  0  0  0  0  0  0  0  0
   -5.2708   -5.8167    0.0000 C   0  0  0  0  0  0  0  0  0  0  0  0
    7.3167   -9.2042    0.0000 N   0  0  0  0  0  0  0  0  0  0  0  0
   -5.2708   -3.0292    0.0000 C   0  0  0  0  0  0  0  0  0  0  0  0
    7.0667  -14.1417    0.0000 N   0  0  0  0  0  0  0  0  0  0  0  0
    1.7875   -4.4167    0.0000 S   0  0  0  0  0  0  0  0  0  0  0  0
    3.1917  -11.9125    0.0000 S   0  0  0  0  0  0  0  0  0  0  0  0
    5.9375   -6.8167    0.0000 C   0  0  0  0  0  0  0  0  0  0  0  0
    5.0167  -16.0000    0.0000 C   0  0  0  0  0  0  0  0  0  0  0  0
    2.6167  -14.6167    0.0000 C   0  0  0  0  0  0  0  0  0  0  0  0
    7.3167   -4.4167    0.0000 O   0  0  0  0  0  0  0  0  0  0  0  0
    3.1667   -6.8167    0.0000 C   0  0  0  0  0  0  0  0  0  0  0  0
   -1.7583   -9.3042    0.0000 C   0  0  0  0  0  0  0  0  0  0  0  0
   -7.6542   -7.2000    0.0000 C   0  0  0  0  0  0  0  0  0  0  0  0
   -7.6542   -1.6542    0.0000 C   0  0  0  0  0  0  0  0  0  0  0  0
  -10.0500   -5.8167    0.0000 C   0  0  0  0  0  0  0  0  0  0  0  0
  -10.0417   -3.0417    0.0000 C   0  0  0  0  0  0  0  0  0  0  0  0
  2  1  2  0  0  0  0
  3  1  1  0  0  0  0
  4  6  1  0  0  0  0
  5  3  1  0  0  0  0
  6 11  1  0  0  0  0
  7  2  1  0  0  0  0
  8  4  2  0  0  0  0
  9  1  1  0  0  0  0
 10  4  1  0  0  0  0
 11 15  1  0  0  0  0
 12  8  1  0  0  0  0
 13 10  1  0  0  0  0
 14 11  2  0  0  0  0
 15  9  1  0  0  0  0
 16  3  1  0  0  0  0
 17  5  2  0  0  0  0
 18  7  2  0  0  0  0
 19 17  1  0  0  0  0
 20 18  1  0  0  0  0
  5  7  1  0  0  0  0
 19 20  2  0  0  0  0
 12 13  2  0  0  0  0
M  END
>  <ID> (7114669)
7114669

>  <Supplier> (7114669)
ChemBridge

>  <clogP> (7114669)
2.500000000000000e+000

>  <RB> (7114669)
4

>  <tPSA> (7114669)
5.981000000000002e+001

>  <Hacc> (7114669)
4

>  <Hdon> (7114669)
1

>  <LogSw> (7114669)
-3.555000000000000e+000

>  <Group> (7114669)
2

>  <Core> (7114669)
012

$$$$
5729125
  -ISIS-  03310818222D

 18 19  0  0  0  0  0  0  0  0999 V2000
   17.1042   -2.7500    0.0000 C   0  0  0  0  0  0  0  0  0  0  0  0
   17.7542   -2.3500    0.0000 N   0  0  3  0  0  0  0  0  0  0  0  0
   16.4542   -2.3542    0.0000 C   0  0  0  0  0  0  0  0  0  0  0  0
   19.0542   -1.6042    0.0000 N   0  0  3  0  0  0  0  0  0  0  0  0
   15.8042   -2.7500    0.0000 C   0  0  0  0  0  0  0  0  0  0  0  0
   17.1042   -3.5000    0.0000 O   0  0  0  0  0  0  0  0  0  0  0  0
   18.4042   -2.7500    0.0000 C   0  0  0  0  0  0  0  0  0  0  0  0
   17.7542   -1.6042    0.0000 C   0  0  0  0  0  0  0  0  0  0  0  0
   15.1542   -2.3500    0.0000 C   0  0  0  0  0  0  0  0  0  0  0  0
   18.4042   -1.2500    0.0000 C   0  0  0  0  0  0  0  0  0  0  0  0
   19.0542   -2.3542    0.0000 C   0  0  0  0  0  0  0  0  0  0  0  0
   15.1667   -1.6000    0.0000 O   0  0  0  0  0  0  0  0  0  0  0  0
   19.7042   -1.2500    0.0000 C   0  0  0  0  0  0  0  0  0  0  0  0
   15.8042   -3.5000    0.0000 C   0  0  0  0  0  0  0  0  0  0  0  0
   14.5167   -2.7167    0.0000 C   0  0  0  0  0  0  0  0  0  0  0  0
   14.5167   -1.2500    0.0000 C   0  0  0  0  0  0  0  0  0  0  0  0
   15.1542   -3.8500    0.0000 C   0  0  0  0  0  0  0  0  0  0  0  0
   14.5042   -3.4667    0.0000 C   0  0  0  0  0  0  0  0  0  0  0  0
  2  1  1  0  0  0  0
  3  1  1  0  0  0  0
  4 10  1  0  0  0  0
  5  3  1  0  0  0  0
  6  1  2  0  0  0  0
  7  2  1  0  0  0  0
  8  2  1  0  0  0  0
  9  5  2  0  0  0  0
 10  8  1  0  0  0  0
 11  7  1  0  0  0  0
 12  9  1  0  0  0  0
 13  4  1  0  0  0  0
 14  5  1  0  0  0  0
 15  9  1  0  0  0  0
 16 12  1  0  0  0  0
 17 14  2  0  0  0  0
 18 17  1  0  0  0  0
 11  4  1  0  0  0  0
 15 18  2  0  0  0  0
M  END
>  <ID> (5729125)
5729125

>  <Supplier> (5729125)
ChemBridge

>  <clogP> (5729125)
1.250000000000000e+000

>  <RB> (5729125)
2

>  <tPSA> (5729125)
3.278000000000000e+001

>  <Hacc> (5729125)
3

>  <Hdon> (5729125)
0

>  <LogSw> (5729125)
-2.079000000000000e+000

>  <Group> (5729125)
3

>  <Core> (5729125)
165

$$$$
5820158
  -ISIS-  03310818222D

 32 37  0  0  0  0  0  0  0  0999 V2000
   -1.7708   -0.3042    0.0000 N   0  0  3  0  0  0  0  0  0  0  0  0
   -2.7333   -0.6792    0.0000 C   0  0  0  0  0  0  0  0  0  0  0  0
   -1.8208    0.7625    0.0000 C   0  0  0  0  0  0  0  0  0  0  0  0
   -4.1458    2.3208    0.0000 C   0  0  0  0  0  0  0  0  0  0  0  0
   -3.2500    0.3958    0.0000 C   0  0  3  0  0  0  0  0  0  0  0  0
   -3.0000    0.8000    0.0000 C   0  0  3  0  0  0  0  0  0  0  0  0
   -3.9625    1.3833    0.0000 C   0  0  3  0  0  0  0  0  0  0  0  0
   -4.2333    0.9333    0.0000 C   0  0  3  0  0  0  0  0  0  0  0  0
   -4.1958    3.3708    0.0000 C   0  0  0  0  0  0  0  0  0  0  0  0
   -0.9125   -0.9000    0.0000 C   0  0  0  0  0  0  0  0  0  0  0  0
   -5.1208    0.9333    0.0000 C   0  0  0  0  0  0  0  0  0  0  0  0
   -5.4125    0.4500    0.0000 C   0  0  0  0  0  0  0  0  0  0  0  0
   -3.0708   -1.6542    0.0000 O   0  0  0  0  0  0  0  0  0  0  0  0
   -0.9958    1.4208    0.0000 O   0  0  0  0  0  0  0  0  0  0  0  0
    0.0292   -0.4500    0.0000 C   0  0  0  0  0  0  0  0  0  0  0  0
   -5.1208    3.8583    0.0000 C   0  0  0  0  0  0  0  0  0  0  0  0
   -3.3125    3.9458    0.0000 C   0  0  0  0  0  0  0  0  0  0  0  0
    0.9000   -1.0167    0.0000 C   0  0  0  0  0  0  0  0  0  0  0  0
   -0.9708   -1.9500    0.0000 C   0  0  0  0  0  0  0  0  0  0  0  0
   -0.1125   -2.5292    0.0000 C   0  0  0  0  0  0  0  0  0  0  0  0
   -5.9958    3.2958    0.0000 C   0  0  0  0  0  0  0  0  0  0  0  0
   -5.1958    4.9000    0.0000 C   0  0  0  0  0  0  0  0  0  0  0  0
   -2.3625    3.4833    0.0000 C   0  0  0  0  0  0  0  0  0  0  0  0
   -3.3625    4.9792    0.0000 C   0  0  0  0  0  0  0  0  0  0  0  0
    0.8500   -2.0667    0.0000 C   0  0  0  0  0  0  0  0  0  0  0  0
    1.8167   -0.5375    0.0000 C   0  0  0  0  0  0  0  0  0  0  0  0
   -1.4958    4.0542    0.0000 C   0  0  0  0  0  0  0  0  0  0  0  0
   -2.5000    5.5542    0.0000 C   0  0  0  0  0  0  0  0  0  0  0  0
   -6.9292    3.7500    0.0000 C   0  0  0  0  0  0  0  0  0  0  0  0
   -6.1292    5.3542    0.0000 C   0  0  0  0  0  0  0  0  0  0  0  0
   -1.5625    5.1167    0.0000 C   0  0  0  0  0  0  0  0  0  0  0  0
   -7.0042    4.7792    0.0000 C   0  0  0  0  0  0  0  0  0  0  0  0
  2  1  1  0  0  0  0
  3  1  1  0  0  0  0
  4  7  1  0  0  0  0
  5  2  1  0  0  0  0
  6  3  1  0  0  0  0
  7  6  1  0  0  0  0
  8  5  1  0  0  0  0
  9  4  2  0  0  0  0
 10  1  1  0  0  0  0
 11  7  1  0  0  0  0
 12  8  1  0  0  0  0
 13  2  2  0  0  0  0
 14  3  2  0  0  0  0
 15 10  1  0  0  0  0
 16  9  1  0  0  0  0
 17  9  1  0  0  0  0
 18 15  2  0  0  0  0
 19 10  2  0  0  0  0
 20 19  1  0  0  0  0
 21 16  1  0  0  0  0
 22 16  2  0  0  0  0
 23 17  2  0  0  0  0
 24 17  1  0  0  0  0
 25 20  2  0  0  0  0
 26 18  1  0  0  0  0
 27 23  1  0  0  0  0
 28 24  2  0  0  0  0
 29 21  2  0  0  0  0
 30 22  1  0  0  0  0
 31 28  1  0  0  0  0
 32 30  2  0  0  0  0
  6  5  1  0  0  0  0
  4  8  1  0  0  0  0
 18 25  1  0  0  0  0
 11 12  2  0  0  0  0
 27 31  2  0  0  0  0
 32 29  1  0  0  0  0
M  END
>  <ID> (5820158)
5820158

>  <Supplier> (5820158)
ChemBridge

>  <clogP> (5820158)
4.230000000000000e+000

>  <RB> (5820158)
3

>  <tPSA> (5820158)
3.738000000000000e+001

>  <Hacc> (5820158)
2

>  <Hdon> (5820158)
0

>  <LogSw> (5820158)
-5.856000000000000e+000

>  <Group> (5820158)
2

>  <Core> (5820158)
311

$$$$
7121198
  -ISIS-  03310818252D

 22 24  0  0  0  0  0  0  0  0999 V2000
    7.6917   -2.7167    0.0000 N   0  0  3  0  0  0  0  0  0  0  0  0
    7.6917   -3.5417    0.0000 C   0  0  0  0  0  0  0  0  0  0  0  0
    6.9042   -2.4667    0.0000 C   0  0  0  0  0  0  0  0  0  0  0  0
    6.9042   -3.8000    0.0000 S   0  0  0  0  0  0  0  0  0  0  0  0
    6.4167   -3.1292    0.0000 C   0  0  0  0  0  0  0  0  0  0  0  0
    8.3542   -2.2375    0.0000 C   0  0  0  0  0  0  0  0  0  0  0  0
    8.3542   -4.0292    0.0000 O   0  0  0  0  0  0  0  0  0  0  0  0
    3.9667   -4.5667    0.0000 C   0  0  0  0  0  0  0  0  0  0  0  0
    5.5917   -3.1375    0.0000 C   0  0  0  0  0  0  0  0  0  0  0  0
    6.6500   -1.6792    0.0000 O   0  0  0  0  0  0  0  0  0  0  0  0
    5.1917   -3.8500    0.0000 C   0  0  0  0  0  0  0  0  0  0  0  0
    4.3042   -5.3167    0.0000 O   0  0  0  0  0  0  0  0  0  0  0  0
    8.2667   -1.4167    0.0000 C   0  0  0  0  0  0  0  0  0  0  0  0
    4.3667   -3.8625    0.0000 C   0  0  0  0  0  0  0  0  0  0  0  0
    3.1500   -4.6667    0.0000 C   0  0  0  0  0  0  0  0  0  0  0  0
    3.7000   -5.8750    0.0000 C   0  0  0  0  0  0  0  0  0  0  0  0
    2.9875   -5.4667    0.0000 C   0  0  0  0  0  0  0  0  0  0  0  0
    7.5125   -1.0792    0.0000 Cl  0  0  0  0  0  0  0  0  0  0  0  0
    9.1042   -2.5750    0.0000 C   0  0  0  0  0  0  0  0  0  0  0  0
    8.9375   -0.9292    0.0000 C   0  0  0  0  0  0  0  0  0  0  0  0
    9.7750   -2.0917    0.0000 C   0  0  0  0  0  0  0  0  0  0  0  0
    9.6917   -1.2667    0.0000 C   0  0  0  0  0  0  0  0  0  0  0  0
  2  1  1  0  0  0  0
  3  1  1  0  0  0  0
  4  2  1  0  0  0  0
  5  3  1  0  0  0  0
  6  1  1  0  0  0  0
  7  2  2  0  0  0  0
  8 14  1  0  0  0  0
  9  5  2  0  0  0  0
 10  3  2  0  0  0  0
 11  9  1  0  0  0  0
 12  8  1  0  0  0  0
 13  6  1  0  0  0  0
 14 11  2  0  0  0  0
 15  8  2  0  0  0  0
 16 12  1  0  0  0  0
 17 15  1  0  0  0  0
 18 13  1  0  0  0  0
 19  6  2  0  0  0  0
 20 13  2  0  0  0  0
 21 19  1  0  0  0  0
 22 21  2  0  0  0  0
  4  5  1  0  0  0  0
 22 20  1  0  0  0  0
 17 16  2  0  0  0  0
M  END
>  <ID> (7121198)
7121198

>  <Supplier> (7121198)
ChemBridge

>  <clogP> (7121198)
5.260000000000000e+000

>  <RB> (7121198)
3

>  <tPSA> (7121198)
5.052000000000000e+001

>  <Hacc> (7121198)
3

>  <Hdon> (7121198)
0

>  <LogSw> (7121198)
-6.111000000000000e+000

>  <Group> (7121198)
2

>  <Core> (7121198)
002

$$$$
6509292
  -ISIS-  03310818242D

 31 34  0  0  0  0  0  0  0  0999 V2000
   -0.6000   -4.3667    0.0000 S   0  0  3  0  0  0  0  0  0  0  0  0
    0.1167   -3.9667    0.0000 N   0  0  3  0  0  0  0  0  0  0  0  0
    2.2375   -2.7000    0.0000 C   0  0  0  0  0  0  0  0  0  0  0  0
    1.5167   -3.1042    0.0000 N   0  0  3  0  0  0  0  0  0  0  0  0
    2.2375   -1.7542    0.0000 C   0  0  0  0  0  0  0  0  0  0  0  0
   -1.4208   -4.4000    0.0000 C   0  0  0  0  0  0  0  0  0  0  0  0
    3.0500   -1.2875    0.0000 C   0  0  0  0  0  0  0  0  0  0  0  0
   -0.1708   -5.1000    0.0000 O   0  0  0  0  0  0  0  0  0  0  0  0
   -0.8000   -5.1667    0.0000 O   0  0  0  0  0  0  0  0  0  0  0  0
    0.8500   -4.3542    0.0000 C   0  0  0  0  0  0  0  0  0  0  0  0
    0.0792   -3.1500    0.0000 C   0  0  0  0  0  0  0  0  0  0  0  0
   -4.3208   -3.7167    0.0000 C   0  0  0  0  0  0  0  0  0  0  0  0
    1.5500   -3.9167    0.0000 C   0  0  0  0  0  0  0  0  0  0  0  0
    0.7792   -2.7167    0.0000 C   0  0  0  0  0  0  0  0  0  0  0  0
   -3.9125   -4.4167    0.0000 N   0  0  0  0  0  0  0  0  0  0  0  0
    3.0500   -3.1542    0.0000 O   0  0  0  0  0  0  0  0  0  0  0  0
   -3.9208   -3.0167    0.0000 O   0  0  0  0  0  0  0  0  0  0  0  0
   -1.8500   -3.6667    0.0000 C   0  0  0  0  0  0  0  0  0  0  0  0
   -1.8458   -5.1167    0.0000 C   0  0  0  0  0  0  0  0  0  0  0  0
    3.0500   -0.3542    0.0000 C   0  0  0  0  0  0  0  0  0  0  0  0
   -3.0958   -4.4167    0.0000 C   0  0  0  0  0  0  0  0  0  0  0  0
   -2.6958   -3.6875    0.0000 C   0  0  0  0  0  0  0  0  0  0  0  0
   -2.6625   -5.1167    0.0000 C   0  0  0  0  0  0  0  0  0  0  0  0
    1.4167   -1.2875    0.0000 C   0  0  0  0  0  0  0  0  0  0  0  0
    3.8667   -1.7667    0.0000 C   0  0  0  0  0  0  0  0  0  0  0  0
    1.4167   -0.3500    0.0000 C   0  0  0  0  0  0  0  0  0  0  0  0
   -5.1583   -3.7375    0.0000 C   0  0  0  0  0  0  0  0  0  0  0  0
    2.2375    0.1000    0.0000 C   0  0  0  0  0  0  0  0  0  0  0  0
    3.8667    0.1208    0.0000 C   0  0  0  0  0  0  0  0  0  0  0  0
    4.7000   -1.3000    0.0000 C   0  0  0  0  0  0  0  0  0  0  0  0
    4.6875   -0.3500    0.0000 C   0  0  0  0  0  0  0  0  0  0  0  0
  2  1  1  0  0  0  0
  3  4  1  0  0  0  0
  4 14  1  0  0  0  0
  5  3  1  0  0  0  0
  6  1  1  0  0  0  0
  7  5  1  0  0  0  0
  8  1  2  0  0  0  0
  9  1  2  0  0  0  0
 10  2  1  0  0  0  0
 11  2  1  0  0  0  0
 12 15  1  0  0  0  0
 13 10  1  0  0  0  0
 14 11  1  0  0  0  0
 15 21  1  0  0  0  0
 16  3  2  0  0  0  0
 17 12  2  0  0  0  0
 18  6  1  0  0  0  0
 19  6  2  0  0  0  0
 20  7  2  0  0  0  0
 21 23  2  0  0  0  0
 22 18  2  0  0  0  0
 23 19  1  0  0  0  0
 24  5  2  0  0  0  0
 25  7  1  0  0  0  0
 26 24  1  0  0  0  0
 27 12  1  0  0  0  0
 28 26  2  0  0  0  0
 29 20  1  0  0  0  0
 30 25  2  0  0  0  0
 31 30  1  0  0  0  0
 21 22  1  0  0  0  0
  4 13  1  0  0  0  0
 20 28  1  0  0  0  0
 29 31  2  0  0  0  0
M  END
>  <ID> (6509292)
6509292

>  <Supplier> (6509292)
ChemBridge

>  <clogP> (6509292)
3.100000000000000e+000

>  <RB> (6509292)
3

>  <tPSA> (6509292)
8.679000000000002e+001

>  <Hacc> (6509292)
5

>  <Hdon> (6509292)
1

>  <LogSw> (6509292)
-5.037000000000000e+000

>  <Group> (6509292)
3

>  <Core> (6509292)
234

$$$$
5789785
  -ISIS-  03310818222D

 24 28  0  0  0  0  0  0  0  0999 V2000
   -1.8333   -1.3375    0.0000 N   0  0  3  0  0  0  0  0  0  0  0  0
   -1.1125   -1.9000    0.0000 C   0  0  0  0  0  0  0  0  0  0  0  0
   -0.2708   -1.5542    0.0000 C   0  0  3  0  0  0  0  0  0  0  0  0
   -1.7958   -0.4375    0.0000 C   0  0  0  0  0  0  0  0  0  0  0  0
   -2.6958   -1.5792    0.0000 C   0  0  0  0  0  0  0  0  0  0  0  0
   -3.2125   -0.8167    0.0000 C   0  0  3  0  0  0  0  0  0  0  0  0
   -2.6500   -0.1167    0.0000 C   0  0  0  0  0  0  0  0  0  0  0  0
    0.6000   -1.8292    0.0000 C   0  0  0  0  0  0  0  0  0  0  0  0
   -0.3708   -0.6500    0.0000 C   0  0  0  0  0  0  0  0  0  0  0  0
    0.5375   -1.5542    0.0000 C   0  0  0  0  0  0  0  0  0  0  0  0
    1.3375   -1.2542    0.0000 C   0  0  3  0  0  0  0  0  0  0  0  0
    0.3542   -0.0667    0.0000 C   0  0  3  0  0  0  0  0  0  0  0  0
    1.4667   -0.8000    0.0000 C   0  0  3  0  0  0  0  0  0  0  0  0
   -1.2333   -2.8000    0.0000 O   0  0  0  0  0  0  0  0  0  0  0  0
   -1.0333    0.0833    0.0000 O   0  0  0  0  0  0  0  0  0  0  0  0
   -4.1125   -0.8167    0.0000 C   0  0  0  0  0  0  0  0  0  0  0  0
    2.4000   -1.2292    0.0000 C   0  0  0  0  0  0  0  0  0  0  0  0
    1.2042   -0.4167    0.0000 C   0  0  0  0  0  0  0  0  0  0  0  0
    1.3000   -0.0167    0.0000 C   0  0  0  0  0  0  0  0  0  0  0  0
   -4.5708   -0.0292    0.0000 C   0  0  0  0  0  0  0  0  0  0  0  0
   -4.5708   -1.6000    0.0000 C   0  0  0  0  0  0  0  0  0  0  0  0
   -5.4708   -1.6000    0.0000 C   0  0  0  0  0  0  0  0  0  0  0  0
   -5.4708   -0.0292    0.0000 C   0  0  0  0  0  0  0  0  0  0  0  0
   -5.9333   -0.8167    0.0000 C   0  0  0  0  0  0  0  0  0  0  0  0
  2  1  1  0  0  0  0
  3  2  1  0  0  0  0
  4  1  1  0  0  0  0
  5  1  1  0  0  0  0
  6  5  1  0  0  0  0
  7  4  1  0  0  0  0
  8  3  1  0  0  0  0
  9  3  1  0  0  0  0
 10  3  1  0  0  0  0
 11  8  1  0  0  0  0
 12  9  1  0  0  0  0
 13 10  1  0  0  0  0
 14  2  2  0  0  0  0
 15  4  2  0  0  0  0
 16  6  1  0  0  0  0
 17 13  1  0  0  0  0
 18 12  1  0  0  0  0
 19 13  1  0  0  0  0
 20 16  2  0  0  0  0
 21 16  1  0  0  0  0
 22 21  2  0  0  0  0
 23 20  1  0  0  0  0
 24 22  1  0  0  0  0
  7  6  1  0  0  0  0
 12 19  1  0  0  0  0
 11 17  1  0  0  0  0
 11 18  1  0  0  0  0
 24 23  2  0  0  0  0
M  END
>  <ID> (5789785)
5789785

>  <Supplier> (5789785)
ChemBridge

>  <clogP> (5789785)
4.180000000000000e+000

>  <RB> (5789785)
2

>  <tPSA> (5789785)
3.738000000000000e+001

>  <Hacc> (5789785)
2

>  <Hdon> (5789785)
0

>  <LogSw> (5789785)
-5.127999999999997e+000

>  <Group> (5789785)
3

$$$$
5789784
  -ISIS-  03310818222D

 20 22  0  0  0  0  0  0  0  0999 V2000
    3.4417    1.5250    0.0000 N   0  0  3  0  0  0  0  0  0  0  0  0
    2.7042    1.6458    0.0000 C   0  0  3  0  0  0  0  0  0  0  0  0
    3.9750    2.0500    0.0000 C   0  0  0  0  0  0  0  0  0  0  0  0
    1.6250    2.2083    0.0000 C   0  0  3  0  0  0  0  0  0  0  0  0
    4.6417    1.7083    0.0000 C   0  0  0  0  0  0  0  0  0  0  0  0
    4.5167    0.9708    0.0000 N   0  0  0  0  0  0  0  0  0  0  0  0
    2.1667    1.1208    0.0000 C   0  0  3  0  0  0  0  0  0  0  0  0
    2.3667    2.3208    0.0000 O   0  0  0  0  0  0  0  0  0  0  0  0
    3.7792    0.8583    0.0000 C   0  0  0  0  0  0  0  0  0  0  0  0
    1.5042    1.4625    0.0000 C   0  0  3  0  0  0  0  0  0  0  0  0
    5.2750    2.1083    0.0000 C   0  0  0  0  0  0  0  0  0  0  0  0
    3.9417    2.8000    0.0000 N   0  0  0  0  0  0  0  0  0  0  0  0
    1.1000    2.7375    0.0000 C   0  0  0  0  0  0  0  0  0  0  0  0
    5.2417    2.8583    0.0000 N   0  0  0  0  0  0  0  0  0  0  0  0
    4.5750    3.2083    0.0000 C   0  0  0  0  0  0  0  0  0  0  0  0
    1.2917    3.4583    0.0000 O   0  0  0  0  0  0  0  0  0  0  0  0
    2.2792    0.3750    0.0000 O   0  0  0  0  0  0  0  0  0  0  0  0
    0.8292    1.1333    0.0000 O   0  0  0  0  0  0  0  0  0  0  0  0
    5.9417    1.7708    0.0000 N   0  0  0  0  0  0  0  0  0  0  0  0
    0.3750    2.5458    0.0000 O   0  0  0  0  0  0  0  0  0  0  0  0
  2  1  1  0  0  0  0
  3  1  1  0  0  0  0
  4  8  1  0  0  0  0
  5  3  2  0  0  0  0
  6  9  2  0  0  0  0
  7  2  1  0  0  0  0
  8  2  1  0  0  0  0
  9  1  1  0  0  0  0
 10  7  1  0  0  0  0
 11  5  1  0  0  0  0
 12  3  1  0  0  0  0
 13  4  1  0  0  0  0
 14 15  1  0  0  0  0
 15 12  2  0  0  0  0
 16 13  2  0  0  0  0
 17  7  1  0  0  0  0
 18 10  1  0  0  0  0
 19 11  1  0  0  0  0
 20 13  1  0  0  0  0
  6  5  1  0  0  0  0
  4 10  1  0  0  0  0
 14 11  2  0  0  0  0
M  END
>  <ID> (5789784)
5789784

>  <Supplier> (5789784)
ChemBridge

>  <clogP> (5789784)
-2.750000000000000e+000

>  <RB> (5789784)
2

>  <tPSA> (5789784)
1.566100000000000e+002

>  <Hacc> (5789784)
9

>  <Hdon> (5789784)
4

>  <LogSw> (5789784)
1.820000000000000e-001

>  <Group> (5789784)
1

$$$$
7121194
  -ISIS-  03310818252D

 25 27  0  0  0  0  0  0  0  0999 V2000
    0.1375   -0.6500    0.0000 S   0  0  0  0  0  0  0  0  0  0  0  0
   -0.5625   -0.0042    0.0000 C   0  0  0  0  0  0  0  0  0  0  0  0
   -1.4708   -0.1667    0.0000 C   0  0  3  0  0  0  0  0  0  0  0  0
    0.9375   -0.1667    0.0000 C   0  0  0  0  0  0  0  0  0  0  0  0
   -0.1833    0.8333    0.0000 N   0  0  0  0  0  0  0  0  0  0  0  0
    0.7375    0.7500    0.0000 N   0  0  0  0  0  0  0  0  0  0  0  0
    1.7375   -0.6292    0.0000 N   0  0  0  0  0  0  0  0  0  0  0  0
    1.4542   -1.5042    0.0000 C   0  0  0  0  0  0  0  0  0  0  0  0
   -2.2333   -0.4167    0.0000 C   0  0  0  0  0  0  0  0  0  0  0  0
   -1.3208    0.7000    0.0000 C   0  0  0  0  0  0  0  0  0  0  0  0
   -2.1208   -1.0042    0.0000 C   0  0  0  0  0  0  0  0  0  0  0  0
   -2.8458   -0.6667    0.0000 C   0  0  3  0  0  0  0  0  0  0  0  0
   -3.0125   -0.0875    0.0000 C   0  0  3  0  0  0  0  0  0  0  0  0
   -1.9833    1.0000    0.0000 C   0  0  3  0  0  0  0  0  0  0  0  0
    0.5792   -1.8292    0.0000 O   0  0  0  0  0  0  0  0  0  0  0  0
   -2.6708    0.4333    0.0000 C   0  0  0  0  0  0  0  0  0  0  0  0
   -3.0208    0.7708    0.0000 C   0  0  0  0  0  0  0  0  0  0  0  0
   -3.8125   -0.9000    0.0000 C   0  0  0  0  0  0  0  0  0  0  0  0
    2.1917   -2.0500    0.0000 C   0  0  0  0  0  0  0  0  0  0  0  0
    3.0375   -1.6792    0.0000 N   0  0  3  0  0  0  0  0  0  0  0  0
    4.6542   -1.2875    0.0000 Cl  0  0  0  0  0  0  0  0  0  0  0  0
    3.7792   -2.2167    0.0000 C   0  0  0  0  0  0  0  0  0  0  0  0
    3.1292   -0.7542    0.0000 C   0  0  0  0  0  0  0  0  0  0  0  0
    3.6875   -3.1167    0.0000 C   0  0  0  0  0  0  0  0  0  0  0  0
    3.9542   -0.3875    0.0000 C   0  0  0  0  0  0  0  0  0  0  0  0
  2  1  1  0  0  0  0
  3  2  1  0  0  0  0
  4  1  1  0  0  0  0
  5  2  2  0  0  0  0
  6  4  2  0  0  0  0
  7  4  1  0  0  0  0
  8  7  1  0  0  0  0
  9  3  1  0  0  0  0
 10  3  1  0  0  0  0
 11  3  1  0  0  0  0
 12 11  1  0  0  0  0
 13  9  1  0  0  0  0
 14 10  1  0  0  0  0
 15  8  2  0  0  0  0
 16 12  1  0  0  0  0
 17 14  1  0  0  0  0
 18 12  1  0  0  0  0
 19  8  1  0  0  0  0
 20 19  1  0  0  0  0
 22 20  1  0  0  0  0
 23 20  1  0  0  0  0
 24 22  1  0  0  0  0
 25 23  1  0  0  0  0
  5  6  1  0  0  0  0
 18 13  1  0  0  0  0
 16 14  1  0  0  0  0
 17 13  1  0  0  0  0
M  END
>  <ID> (7121194)
7121194

>  <Supplier> (7121194)
ChemBridge

>  <clogP> (7121194)
1.520000000000000e+000

>  <RB> (7121194)
3

>  <tPSA> (7121194)
5.811999999999998e+001

>  <Hacc> (7121194)
4

>  <Hdon> (7121194)
1

>  <LogSw> (7121194)
-3.039000000000000e+000

>  <Group> (7121194)
3

>  <Core> (7121194)
246

$$$$
6238386
  -ISIS-  03310818232D

 31 34  0  0  0  0  0  0  0  0999 V2000
    3.2750   -2.3792    0.0000 C   0  0  0  0  0  0  0  0  0  0  0  0
    1.8917   -2.3792    0.0000 C   0  0  0  0  0  0  0  0  0  0  0  0
    2.5792   -1.9792    0.0000 C   0  0  3  0  0  0  0  0  0  0  0  0
    1.8917   -3.1792    0.0000 C   0  0  0  0  0  0  0  0  0  0  0  0
    3.2750   -3.1792    0.0000 C   0  0  0  0  0  0  0  0  0  0  0  0
    2.5792   -3.5792    0.0000 N   0  0  0  0  0  0  0  0  0  0  0  0
    1.2042   -1.9792    0.0000 C   0  0  0  0  0  0  0  0  0  0  0  0
    2.5750   -0.4042    0.0000 C   0  0  0  0  0  0  0  0  0  0  0  0
    3.9667   -1.9792    0.0000 C   0  0  0  0  0  0  0  0  0  0  0  0
    1.2042   -3.5792    0.0000 C   0  0  0  0  0  0  0  0  0  0  0  0
    0.5167   -3.1792    0.0000 C   0  0  3  0  0  0  0  0  0  0  0  0
    0.5167   -2.3792    0.0000 C   0  0  0  0  0  0  0  0  0  0  0  0
    4.6625   -2.3792    0.0000 O   0  0  0  0  0  0  0  0  0  0  0  0
    3.2667   -0.0125    0.0000 C   0  0  0  0  0  0  0  0  0  0  0  0
    1.8875   -0.0125    0.0000 C   0  0  0  0  0  0  0  0  0  0  0  0
    1.2042   -1.1875    0.0000 O   0  0  0  0  0  0  0  0  0  0  0  0
    3.9667   -1.1792    0.0000 O   0  0  0  0  0  0  0  0  0  0  0  0
    6.8167   -2.0417    0.0000 O   0  0  0  0  0  0  0  0  0  0  0  0
    3.9667   -3.5875    0.0000 C   0  0  0  0  0  0  0  0  0  0  0  0
    5.3500   -1.9792    0.0000 C   0  0  0  0  0  0  0  0  0  0  0  0
    1.1667   -0.4250    0.0000 F   0  0  0  0  0  0  0  0  0  0  0  0
    3.9625   -0.4042    0.0000 Cl  0  0  0  0  0  0  0  0  0  0  0  0
    6.0625   -2.3875    0.0000 C   0  0  3  0  0  0  0  0  0  0  0  0
    0.1125   -3.8792    0.0000 C   0  0  0  0  0  0  0  0  0  0  0  0
   -0.2750   -3.2917    0.0000 C   0  0  0  0  0  0  0  0  0  0  0  0
    2.5750    1.1875    0.0000 C   0  0  0  0  0  0  0  0  0  0  0  0
    3.2667    0.7875    0.0000 C   0  0  0  0  0  0  0  0  0  0  0  0
    1.8875    0.7875    0.0000 C   0  0  0  0  0  0  0  0  0  0  0  0
    7.3667   -2.6542    0.0000 C   0  0  0  0  0  0  0  0  0  0  0  0
    6.1542   -3.2042    0.0000 C   0  0  0  0  0  0  0  0  0  0  0  0
    6.9625   -3.3667    0.0000 C   0  0  0  0  0  0  0  0  0  0  0  0
  2  3  1  0  0  0  0
  3  1  1  0  0  0  0
  4  6  1  0  0  0  0
  5  1  2  0  0  0  0
  6  5  1  0  0  0  0
  7  2  1  0  0  0  0
  8  3  1  0  0  0  0
  9  1  1  0  0  0  0
 10  4  1  0  0  0  0
 11 10  1  0  0  0  0
 12  7  1  0  0  0  0
 13  9  1  0  0  0  0
 14  8  2  0  0  0  0
 15  8  1  0  0  0  0
 16  7  2  0  0  0  0
 17  9  2  0  0  0  0
 18 23  1  0  0  0  0
 19  5  1  0  0  0  0
 20 13  1  0  0  0  0
 21 15  1  0  0  0  0
 22 14  1  0  0  0  0
 23 20  1  0  0  0  0
 24 11  1  0  0  0  0
 25 11  1  0  0  0  0
 26 28  1  0  0  0  0
 27 14  1  0  0  0  0
 28 15  2  0  0  0  0
 29 18  1  0  0  0  0
 30 23  1  0  0  0  0
 31 30  1  0  0  0  0
  2  4  2  0  0  0  0
 27 26  2  0  0  0  0
 12 11  1  0  0  0  0
 29 31  1  0  0  0  0
M  END
>  <ID> (6238386)
6238386

>  <Supplier> (6238386)
ChemBridge

>  <clogP> (6238386)
4.850000000000000e+000

>  <RB> (6238386)
5

>  <tPSA> (6238386)
6.463000000000000e+001

>  <Hacc> (6238386)
4

>  <Hdon> (6238386)
1

>  <LogSw> (6238386)
-5.599000000000000e+000

>  <Group> (6238386)
3

>  <Core> (6238386)
085

$$$$
9077069
  -ISIS-  03310818292D

 27 29  0  0  0  0  0  0  0  0999 V2000
    4.0167    2.8708    0.0000 C   0  0  0  0  0  0  0  0  0  0  0  0
    2.8667    3.2458    0.0000 N   0  0  0  0  0  0  0  0  0  0  0  0
    2.8667    2.4958    0.0000 N   0  0  3  0  0  0  0  0  0  0  0  0
    3.5792    3.4708    0.0000 N   0  0  0  0  0  0  0  0  0  0  0  0
    3.5792    2.2583    0.0000 C   0  0  0  0  0  0  0  0  0  0  0  0
    4.7667    2.8708    0.0000 C   0  0  0  0  0  0  0  0  0  0  0  0
    5.8917    0.9208    0.0000 C   0  0  3  0  0  0  0  0  0  0  0  0
    6.2667    1.5708    0.0000 C   0  0  0  0  0  0  0  0  0  0  0  0
    5.1417    2.2208    0.0000 N   0  0  0  0  0  0  0  0  0  0  0  0
    5.8917    2.2208    0.0000 C   0  0  0  0  0  0  0  0  0  0  0  0
    2.2542    2.0500    0.0000 C   0  0  0  0  0  0  0  0  0  0  0  0
    5.1417    3.5208    0.0000 O   0  0  0  0  0  0  0  0  0  0  0  0
    6.4250    0.3875    0.0000 F   0  0  0  0  0  0  0  0  0  0  0  0
    5.2792    1.3458    0.0000 F   0  0  0  0  0  0  0  0  0  0  0  0
    5.4125    0.3458    0.0000 F   0  0  0  0  0  0  0  0  0  0  0  0
    1.5750    2.3583    0.0000 C   0  0  0  0  0  0  0  0  0  0  0  0
    2.3375    1.3083    0.0000 C   0  0  0  0  0  0  0  0  0  0  0  0
    3.8125    1.5458    0.0000 C   0  0  0  0  0  0  0  0  0  0  0  0
    0.9667    1.9125    0.0000 C   0  0  0  0  0  0  0  0  0  0  0  0
    1.7292    0.8625    0.0000 C   0  0  0  0  0  0  0  0  0  0  0  0
    1.0417    1.1708    0.0000 C   0  0  0  0  0  0  0  0  0  0  0  0
    7.0167    1.5708    0.0000 C   0  0  0  0  0  0  0  0  0  0  0  0
    6.2667    2.8708    0.0000 C   0  0  0  0  0  0  0  0  0  0  0  0
    0.4417    0.7333    0.0000 C   0  0  0  0  0  0  0  0  0  0  0  0
    7.3917    2.2208    0.0000 C   0  0  0  0  0  0  0  0  0  0  0  0
    7.0167    2.8708    0.0000 C   0  0  0  0  0  0  0  0  0  0  0  0
    0.5167   -0.0167    0.0000 C   0  0  0  0  0  0  0  0  0  0  0  0
  2  4  2  0  0  0  0
  3  5  1  0  0  0  0
  4  1  1  0  0  0  0
  5  1  2  0  0  0  0
  6  1  1  0  0  0  0
  7  8  1  0  0  0  0
  8 10  1  0  0  0  0
  9  6  1  0  0  0  0
 10  9  1  0  0  0  0
 11  3  1  0  0  0  0
 12  6  2  0  0  0  0
 13  7  1  0  0  0  0
 14  7  1  0  0  0  0
 15  7  1  0  0  0  0
 16 11  2  0  0  0  0
 17 11  1  0  0  0  0
 18  5  1  0  0  0  0
 19 16  1  0  0  0  0
 20 17  2  0  0  0  0
 21 20  1  0  0  0  0
 22  8  2  0  0  0  0
 23 10  2  0  0  0  0
 24 21  1  0  0  0  0
 25 26  2  0  0  0  0
 26 23  1  0  0  0  0
 27 24  1  0  0  0  0
  2  3  1  0  0  0  0
 25 22  1  0  0  0  0
 19 21  2  0  0  0  0
M  END
>  <ID> (9077069)
9077069

>  <Supplier> (9077069)
ChemBridge

>  <clogP> (9077069)
3.362000000000000e+000

>  <RB> (9077069)
3

>  <tPSA> (9077069)
5.981000000000002e+001

>  <Hacc> (9077069)
3

>  <Hdon> (9077069)
1

>  <LogSw> (9077069)
-4.801000000000000e+000

>  <Group> (9077069)
2

>  <Core> (9077069)
121

$$$$
6238383
  -ISIS-  03310818232D

 32 36  0  0  0  0  0  0  0  0999 V2000
    2.7375   -1.2167    0.0000 C   0  0  0  0  0  0  0  0  0  0  0  0
    2.3750   -0.4917    0.0000 C   0  0  0  0  0  0  0  0  0  0  0  0
    2.3792   -1.9667    0.0000 C   0  0  3  0  0  0  0  0  0  0  0  0
    1.5875   -2.1667    0.0000 N   0  0  0  0  0  0  0  0  0  0  0  0
    3.5500   -1.2667    0.0000 C   0  0  0  0  0  0  0  0  0  0  0  0
    1.5750   -0.3042    0.0000 N   0  0  0  0  0  0  0  0  0  0  0  0
    0.9375   -1.6542    0.0000 C   0  0  0  0  0  0  0  0  0  0  0  0
    2.8250    0.1958    0.0000 C   0  0  0  0  0  0  0  0  0  0  0  0
    0.9250   -0.8167    0.0000 C   0  0  0  0  0  0  0  0  0  0  0  0
    3.6500    0.1333    0.0000 C   0  0  3  0  0  0  0  0  0  0  0  0
    4.0125   -0.5917    0.0000 C   0  0  0  0  0  0  0  0  0  0  0  0
    4.4542   -4.5417    0.0000 C   0  0  0  0  0  0  0  0  0  0  0  0
    2.9000   -2.6167    0.0000 C   0  0  0  0  0  0  0  0  0  0  0  0
    3.9375   -3.9042    0.0000 C   0  0  0  0  0  0  0  0  0  0  0  0
    3.9250   -2.0167    0.0000 O   0  0  0  0  0  0  0  0  0  0  0  0
    4.1542   -5.3125    0.0000 O   0  0  0  0  0  0  0  0  0  0  0  0
    4.1125    0.8208    0.0000 C   0  0  0  0  0  0  0  0  0  0  0  0
    2.6000   -3.3792    0.0000 C   0  0  0  0  0  0  0  0  0  0  0  0
    3.7125   -2.4792    0.0000 C   0  0  0  0  0  0  0  0  0  0  0  0
    4.2375   -3.1167    0.0000 C   0  0  0  0  0  0  0  0  0  0  0  0
    3.1250   -4.0292    0.0000 C   0  0  0  0  0  0  0  0  0  0  0  0
    5.2667   -4.4167    0.0000 O   0  0  0  0  0  0  0  0  0  0  0  0
    0.2125   -2.0667    0.0000 C   0  0  0  0  0  0  0  0  0  0  0  0
    0.2000   -0.4042    0.0000 C   0  0  0  0  0  0  0  0  0  0  0  0
    3.7500    1.5583    0.0000 C   0  0  0  0  0  0  0  0  0  0  0  0
    4.9375    0.7583    0.0000 C   0  0  0  0  0  0  0  0  0  0  0  0
    5.7875   -5.0542    0.0000 C   0  0  0  0  0  0  0  0  0  0  0  0
   -0.5000   -0.8167    0.0000 C   0  0  0  0  0  0  0  0  0  0  0  0
   -0.5000   -1.6542    0.0000 C   0  0  0  0  0  0  0  0  0  0  0  0
    5.4000    1.4458    0.0000 C   0  0  0  0  0  0  0  0  0  0  0  0
    4.2125    2.2458    0.0000 C   0  0  0  0  0  0  0  0  0  0  0  0
    5.0375    2.1833    0.0000 C   0  0  0  0  0  0  0  0  0  0  0  0
  2  1  2  0  0  0  0
  3  1  1  0  0  0  0
  4  3  1  0  0  0  0
  5  1  1  0  0  0  0
  6  2  1  0  0  0  0
  7  4  1  0  0  0  0
  8  2  1  0  0  0  0
  9  6  1  0  0  0  0
 10 11  1  0  0  0  0
 11  5  1  0  0  0  0
 12 14  1  0  0  0  0
 13  3  1  0  0  0  0
 14 20  1  0  0  0  0
 15  5  2  0  0  0  0
 16 12  2  0  0  0  0
 17 10  1  0  0  0  0
 18 13  2  0  0  0  0
 19 13  1  0  0  0  0
 20 19  2  0  0  0  0
 21 18  1  0  0  0  0
 22 12  1  0  0  0  0
 23  7  2  0  0  0  0
 24  9  2  0  0  0  0
 25 17  1  0  0  0  0
 26 17  2  0  0  0  0
 27 22  1  0  0  0  0
 28 24  1  0  0  0  0
 29 23  1  0  0  0  0
 30 26  1  0  0  0  0
 31 25  2  0  0  0  0
 32 30  2  0  0  0  0
  8 10  1  0  0  0  0
  7  9  1  0  0  0  0
 21 14  2  0  0  0  0
 29 28  2  0  0  0  0
 31 32  1  0  0  0  0
M  END
>  <ID> (6238383)
6238383

>  <Supplier> (6238383)
ChemBridge

>  <clogP> (6238383)
4.080000000000000e+000

>  <RB> (6238383)
3

>  <tPSA> (6238383)
6.743000000000001e+001

>  <Hacc> (6238383)
3

>  <Hdon> (6238383)
2

>  <LogSw> (6238383)
-5.779000000000003e+000

>  <Group> (6238383)
3

>  <Core> (6238383)
102

$$$$
6238382
  -ISIS-  03310818232D

 27 27  0  0  0  0  0  0  0  0999 V2000
    1.5542   -0.5167    0.0000 N   0  0  3  0  0  0  0  0  0  0  0  0
    2.2875   -0.5167    0.0000 C   0  0  0  0  0  0  0  0  0  0  0  0
    0.0792   -0.5167    0.0000 N   0  0  3  0  0  0  0  0  0  0  0  0
    2.6542   -1.1500    0.0000 N   0  0  0  0  0  0  0  0  0  0  0  0
    1.2000    0.1208    0.0000 C   0  0  0  0  0  0  0  0  0  0  0  0
    1.2000   -1.1542    0.0000 C   0  0  0  0  0  0  0  0  0  0  0  0
   -3.2208    0.1208    0.0000 C   0  0  0  0  0  0  0  0  0  0  0  0
   -0.6625   -0.5167    0.0000 C   0  0  0  0  0  0  0  0  0  0  0  0
    0.4542    0.1208    0.0000 C   0  0  0  0  0  0  0  0  0  0  0  0
    0.4542   -1.1542    0.0000 C   0  0  0  0  0  0  0  0  0  0  0  0
   -2.1208    0.7625    0.0000 O   0  0  0  0  0  0  0  0  0  0  0  0
   -1.0208    0.1208    0.0000 C   0  0  3  0  0  0  0  0  0  0  0  0
   -2.8625    0.7625    0.0000 C   0  0  0  0  0  0  0  0  0  0  0  0
   -3.9625    0.1208    0.0000 C   0  0  0  0  0  0  0  0  0  0  0  0
   -1.7625    0.1208    0.0000 C   0  0  0  0  0  0  0  0  0  0  0  0
   -1.0458    2.0333    0.0000 Cl  0  0  0  0  0  0  0  0  0  0  0  0
   -2.6000    2.2708    0.0000 Cl  0  0  0  0  0  0  0  0  0  0  0  0
   -0.6625    0.7625    0.0000 O   0  0  0  0  0  0  0  0  0  0  0  0
   -4.3208   -0.5167    0.0000 O   0  0  0  0  0  0  0  0  0  0  0  0
    2.6500    0.1125    0.0000 C   0  0  0  0  0  0  0  0  0  0  0  0
   -3.9625    1.4208    0.0000 C   0  0  0  0  0  0  0  0  0  0  0  0
    3.4000   -1.1375    0.0000 C   0  0  0  0  0  0  0  0  0  0  0  0
   -3.2208    1.4208    0.0000 C   0  0  0  0  0  0  0  0  0  0  0  0
   -4.3208    0.7625    0.0000 C   0  0  0  0  0  0  0  0  0  0  0  0
   -3.9458   -1.1542    0.0000 C   0  0  0  0  0  0  0  0  0  0  0  0
    3.3875    0.1208    0.0000 C   0  0  0  0  0  0  0  0  0  0  0  0
    3.7667   -0.5000    0.0000 C   0  0  0  0  0  0  0  0  0  0  0  0
  2  1  1  0  0  0  0
  3 10  1  0  0  0  0
  4  2  2  0  0  0  0
  5  1  1  0  0  0  0
  6  1  1  0  0  0  0
  7 13  2  0  0  0  0
  8  3  1  0  0  0  0
  9  5  1  0  0  0  0
 10  6  1  0  0  0  0
 11 15  1  0  0  0  0
 12  8  1  0  0  0  0
 13 11  1  0  0  0  0
 14  7  1  0  0  0  0
 15 12  1  0  0  0  0
 18 12  1  0  0  0  0
 19 14  1  0  0  0  0
 20  2  1  0  0  0  0
 21 23  2  0  0  0  0
 22  4  1  0  0  0  0
 23 13  1  0  0  0  0
 24 21  1  0  0  0  0
 25 19  1  0  0  0  0
 26 20  2  0  0  0  0
 27 26  1  0  0  0  0
  3  9  1  0  0  0  0
 27 22  2  0  0  0  0
 24 14  2  0  0  0  0
M  END
>  <ID> (6238382)
6238382

>  <Supplier> (6238382)
ChemBridge

>  <clogP> (6238382)
4.000000000000000e-001

>  <RB> (6238382)
6

>  <tPSA> (6238382)
5.806000000000000e+001

>  <Hacc> (6238382)
5

>  <Hdon> (6238382)
1

>  <LogSw> (6238382)
-1.038000000000000e+000

>  <Group> (6238382)
3

>  <Core> (6238382)
564

$$$$
7147149
  -ISIS-  03310818252D

 32 34  0  0  0  0  0  0  0  0999 V2000
    5.5042   -4.9917    0.0000 S   0  0  3  0  0  0  0  0  0  0  0  0
    5.5042   -4.1667    0.0000 N   0  0  3  0  0  0  0  0  0  0  0  0
    6.2167   -3.7542    0.0000 C   0  0  0  0  0  0  0  0  0  0  0  0
    6.9375   -4.1667    0.0000 C   0  0  0  0  0  0  0  0  0  0  0  0
    7.6500   -3.7542    0.0000 N   0  0  3  0  0  0  0  0  0  0  0  0
    4.7917   -5.4042    0.0000 C   0  0  0  0  0  0  0  0  0  0  0  0
    9.7875   -2.5042    0.0000 C   0  0  0  0  0  0  0  0  0  0  0  0
    6.0875   -5.5792    0.0000 O   0  0  0  0  0  0  0  0  0  0  0  0
    6.3292   -4.9917    0.0000 O   0  0  0  0  0  0  0  0  0  0  0  0
    4.7917   -3.7542    0.0000 C   0  0  0  0  0  0  0  0  0  0  0  0
    9.0750   -2.9167    0.0000 C   0  0  3  0  0  0  0  0  0  0  0  0
    8.3667   -4.1625    0.0000 C   0  0  0  0  0  0  0  0  0  0  0  0
    7.6417   -2.9292    0.0000 C   0  0  0  0  0  0  0  0  0  0  0  0
    6.9292   -4.9917    0.0000 O   0  0  0  0  0  0  0  0  0  0  0  0
   10.5042   -2.9125    0.0000 O   0  0  0  0  0  0  0  0  0  0  0  0
    8.3542   -2.5125    0.0000 C   0  0  0  0  0  0  0  0  0  0  0  0
    9.0792   -3.7500    0.0000 C   0  0  0  0  0  0  0  0  0  0  0  0
    4.0792   -4.9917    0.0000 C   0  0  0  0  0  0  0  0  0  0  0  0
    4.7917   -6.2292    0.0000 C   0  0  0  0  0  0  0  0  0  0  0  0
    4.0792   -4.1667    0.0000 C   0  0  0  0  0  0  0  0  0  0  0  0
    4.7917   -2.9292    0.0000 C   0  0  0  0  0  0  0  0  0  0  0  0
    9.7792   -1.6750    0.0000 N   0  0  0  0  0  0  0  0  0  0  0  0
    3.3625   -6.2250    0.0000 C   0  0  0  0  0  0  0  0  0  0  0  0
    3.3667   -2.9292    0.0000 C   0  0  0  0  0  0  0  0  0  0  0  0
    3.3667   -5.4000    0.0000 C   0  0  0  0  0  0  0  0  0  0  0  0
    4.0750   -6.6417    0.0000 C   0  0  0  0  0  0  0  0  0  0  0  0
    3.3667   -3.7542    0.0000 C   0  0  0  0  0  0  0  0  0  0  0  0
    4.0792   -2.5167    0.0000 C   0  0  0  0  0  0  0  0  0  0  0  0
    2.6417   -6.6292    0.0000 Cl  0  0  0  0  0  0  0  0  0  0  0  0
    2.6542   -2.5167    0.0000 O   0  0  0  0  0  0  0  0  0  0  0  0
    2.6500   -1.6917    0.0000 C   0  0  0  0  0  0  0  0  0  0  0  0
    3.3625   -1.2792    0.0000 C   0  0  0  0  0  0  0  0  0  0  0  0
  2  1  1  0  0  0  0
  3  2  1  0  0  0  0
  4  3  1  0  0  0  0
  5  4  1  0  0  0  0
  6  1  1  0  0  0  0
  7 11  1  0  0  0  0
  8  1  2  0  0  0  0
  9  1  2  0  0  0  0
 10  2  1  0  0  0  0
 11 16  1  0  0  0  0
 12  5  1  0  0  0  0
 13  5  1  0  0  0  0
 14  4  2  0  0  0  0
 15  7  2  0  0  0  0
 16 13  1  0  0  0  0
 17 12  1  0  0  0  0
 18  6  2  0  0  0  0
 19  6  1  0  0  0  0
 20 10  2  0  0  0  0
 21 10  1  0  0  0  0
 22  7  1  0  0  0  0
 23 26  1  0  0  0  0
 24 28  1  0  0  0  0
 25 18  1  0  0  0  0
 26 19  2  0  0  0  0
 27 20  1  0  0  0  0
 28 21  2  0  0  0  0
 29 23  1  0  0  0  0
 30 24  1  0  0  0  0
 31 30  1  0  0  0  0
 32 31  1  0  0  0  0
 25 23  2  0  0  0  0
 27 24  2  0  0  0  0
 17 11  1  0  0  0  0
M  END
>  <ID> (7147149)
7147149

>  <Supplier> (7147149)
ChemBridge

>  <clogP> (7147149)
2.060000000000000e+000

>  <RB> (7147149)
5

>  <tPSA> (7147149)
1.100100000000000e+002

>  <Hacc> (7147149)
5

>  <Hdon> (7147149)
1

>  <LogSw> (7147149)
-4.458000000000000e+000

>  <Group> (7147149)
2

>  <Core> (7147149)
084

$$$$
6898780
  -ISIS-  03310818242D

 27 30  0  0  0  0  0  0  0  0999 V2000
    2.5667   -2.9792    0.0000 C   0  0  0  0  0  0  0  0  0  0  0  0
    3.3917   -3.0625    0.0000 C   0  0  0  0  0  0  0  0  0  0  0  0
    2.0167   -3.5917    0.0000 O   0  0  0  0  0  0  0  0  0  0  0  0
    1.2667   -3.2542    0.0000 C   0  0  0  0  0  0  0  0  0  0  0  0
    3.8750   -2.3917    0.0000 N   0  0  3  0  0  0  0  0  0  0  0  0
    4.8417   -1.0542    0.0000 N   0  0  3  0  0  0  0  0  0  0  0  0
    2.1542   -2.2625    0.0000 C   0  0  0  0  0  0  0  0  0  0  0  0
    1.3500   -2.4375    0.0000 C   0  0  0  0  0  0  0  0  0  0  0  0
    5.3292   -0.3917    0.0000 C   0  0  0  0  0  0  0  0  0  0  0  0
    6.1500   -0.4792    0.0000 C   0  0  0  0  0  0  0  0  0  0  0  0
    3.7292   -3.8125    0.0000 S   0  0  0  0  0  0  0  0  0  0  0  0
    0.5542   -3.6750    0.0000 C   0  0  0  0  0  0  0  0  0  0  0  0
    4.7000   -2.4792    0.0000 C   0  0  0  0  0  0  0  0  0  0  0  0
    3.5375   -1.6417    0.0000 C   0  0  0  0  0  0  0  0  0  0  0  0
    4.0250   -0.9750    0.0000 C   0  0  0  0  0  0  0  0  0  0  0  0
    5.1792   -1.8125    0.0000 C   0  0  0  0  0  0  0  0  0  0  0  0
    0.5542   -4.5042    0.0000 C   0  0  0  0  0  0  0  0  0  0  0  0
   -0.1583   -3.2625    0.0000 C   0  0  0  0  0  0  0  0  0  0  0  0
    6.6292    0.1833    0.0000 C   0  0  0  0  0  0  0  0  0  0  0  0
   -0.8708   -4.5042    0.0000 C   0  0  0  0  0  0  0  0  0  0  0  0
   -0.8708   -3.6750    0.0000 C   0  0  0  0  0  0  0  0  0  0  0  0
   -0.1583   -4.9167    0.0000 C   0  0  0  0  0  0  0  0  0  0  0  0
    7.4542    0.1000    0.0000 Cl  0  0  0  0  0  0  0  0  0  0  0  0
   -1.5875   -4.9125    0.0000 Br  0  0  0  0  0  0  0  0  0  0  0  0
    4.9917    0.3583    0.0000 C   0  0  0  0  0  0  0  0  0  0  0  0
    5.4750    1.0250    0.0000 C   0  0  0  0  0  0  0  0  0  0  0  0
    6.3000    0.9375    0.0000 C   0  0  0  0  0  0  0  0  0  0  0  0
  2  1  1  0  0  0  0
  3  1  1  0  0  0  0
  4  3  1  0  0  0  0
  5  2  1  0  0  0  0
  6 15  1  0  0  0  0
  7  1  2  0  0  0  0
  8  7  1  0  0  0  0
  9  6  1  0  0  0  0
 10  9  2  0  0  0  0
 11  2  2  0  0  0  0
 12  4  1  0  0  0  0
 13  5  1  0  0  0  0
 14  5  1  0  0  0  0
 15 14  1  0  0  0  0
 16 13  1  0  0  0  0
 17 12  1  0  0  0  0
 18 12  2  0  0  0  0
 19 10  1  0  0  0  0
 20 21  2  0  0  0  0
 21 18  1  0  0  0  0
 22 17  2  0  0  0  0
 23 19  1  0  0  0  0
 24 20  1  0  0  0  0
 25  9  1  0  0  0  0
 26 25  2  0  0  0  0
 27 26  1  0  0  0  0
  8  4  2  0  0  0  0
 16  6  1  0  0  0  0
 20 22  1  0  0  0  0
 19 27  2  0  0  0  0
M  END
>  <ID> (6898780)
6898780

>  <Supplier> (6898780)
ChemBridge

>  <clogP> (6898780)
5.920000000000000e+000

>  <RB> (6898780)
3

>  <tPSA> (6898780)
1.962000000000000e+001

>  <Hacc> (6898780)
1

>  <Hdon> (6898780)
0

>  <LogSw> (6898780)
-6.613999999999998e+000

>  <Group> (6898780)
1

>  <Core> (6898780)
158

$$$$
9043089
  -ISIS-  03310818282D

 19 20  0  0  0  0  0  0  0  0999 V2000
    2.9667    1.5000    0.0000 C   0  0  0  0  0  0  0  0  0  0  0  0
    1.6667    1.5000    0.0000 C   0  0  0  0  0  0  0  0  0  0  0  0
    2.3167    1.1250    0.0000 N   0  0  0  0  0  0  0  0  0  0  0  0
    3.6167    1.1250    0.0000 N   0  0  0  0  0  0  0  0  0  0  0  0
    2.9667    2.2500    0.0000 O   0  0  0  0  0  0  0  0  0  0  0  0
    4.2667    1.5000    0.0000 C   0  0  0  0  0  0  0  0  0  0  0  0
    1.6667    2.2500    0.0000 C   0  0  0  0  0  0  0  0  0  0  0  0
    1.0167    1.1250    0.0000 C   0  0  0  0  0  0  0  0  0  0  0  0
    4.9167    1.1250    0.0000 C   0  0  0  0  0  0  0  0  0  0  0  0
    5.5667    1.5000    0.0000 C   0  0  0  0  0  0  0  0  0  0  0  0
    6.2167    1.1250    0.0000 F   0  0  0  0  0  0  0  0  0  0  0  0
    0.3750    2.2500    0.0000 C   0  0  0  0  0  0  0  0  0  0  0  0
    4.9167    2.6250    0.0000 C   0  0  0  0  0  0  0  0  0  0  0  0
    1.0167    2.6250    0.0000 C   0  0  0  0  0  0  0  0  0  0  0  0
    0.3750    1.5000    0.0000 C   0  0  0  0  0  0  0  0  0  0  0  0
    4.2667    2.2500    0.0000 C   0  0  0  0  0  0  0  0  0  0  0  0
    1.0167    0.3750    0.0000 C   0  0  0  0  0  0  0  0  0  0  0  0
    2.3167    2.6250    0.0000 C   0  0  0  0  0  0  0  0  0  0  0  0
    5.5667    2.2500    0.0000 C   0  0  0  0  0  0  0  0  0  0  0  0
  2  3  1  0  0  0  0
  3  1  1  0  0  0  0
  4  1  1  0  0  0  0
  5  1  2  0  0  0  0
  6  4  1  0  0  0  0
  7  2  1  0  0  0  0
  8  2  2  0  0  0  0
  9  6  2  0  0  0  0
 10  9  1  0  0  0  0
 11 10  1  0  0  0  0
 12 15  2  0  0  0  0
 13 16  2  0  0  0  0
 14  7  2  0  0  0  0
 15  8  1  0  0  0  0
 16  6  1  0  0  0  0
 17  8  1  0  0  0  0
 18  7  1  0  0  0  0
 19 13  1  0  0  0  0
 14 12  1  0  0  0  0
 10 19  2  0  0  0  0
M  END
>  <ID> (9043089)
9043089

>  <Supplier> (9043089)
ChemBridge

>  <clogP> (9043089)
3.333000000000000e+000

>  <RB> (9043089)
2

>  <tPSA> (9043089)
4.113000000000000e+001

>  <Hacc> (9043089)
1

>  <Hdon> (9043089)
2

>  <LogSw> (9043089)
-4.725000000000000e+000

>  <Group> (9043089)
1

>  <Core> (9043089)
514

$$$$
5316186
  -ISIS-  03310818212D

 31 34  0  0  0  0  0  0  0  0999 V2000
   -1.3125   -0.0792    0.0000 N   0  0  3  0  0  0  0  0  0  0  0  0
   -2.2500    0.4625    0.0000 C   0  0  0  0  0  0  0  0  0  0  0  0
   -1.3125   -1.1542    0.0000 C   0  0  0  0  0  0  0  0  0  0  0  0
   -2.2500   -1.7000    0.0000 N   0  0  0  0  0  0  0  0  0  0  0  0
   -3.1958   -0.0792    0.0000 C   0  0  0  0  0  0  0  0  0  0  0  0
    2.4417    2.0833    0.0000 N   0  3  0  0  0  0  0  0  0  0  0  0
    4.3500   -3.3000    0.0000 N   0  3  0  0  0  0  0  0  0  0  0  0
   -3.1958   -1.1542    0.0000 C   0  0  0  0  0  0  0  0  0  0  0  0
   -0.3708   -1.7167    0.0000 C   0  0  0  0  0  0  0  0  0  0  0  0
   -0.3958    0.4625    0.0000 C   0  0  0  0  0  0  0  0  0  0  0  0
    1.4875    1.5458    0.0000 C   0  0  0  0  0  0  0  0  0  0  0  0
    3.4042   -2.7792    0.0000 C   0  0  0  0  0  0  0  0  0  0  0  0
   -2.2500    1.5458    0.0000 O   0  0  0  0  0  0  0  0  0  0  0  0
    4.4667   -4.3792    0.0000 O   0  5  0  0  0  0  0  0  0  0  0  0
    3.3667    1.5458    0.0000 O   0  5  0  0  0  0  0  0  0  0  0  0
    0.5875   -1.1542    0.0000 C   0  0  0  0  0  0  0  0  0  0  0  0
    2.4667    3.1708    0.0000 O   0  0  0  0  0  0  0  0  0  0  0  0
    5.3042   -2.8042    0.0000 O   0  0  0  0  0  0  0  0  0  0  0  0
    0.5667   -0.0792    0.0000 C   0  0  0  0  0  0  0  0  0  0  0  0
   -0.3958    1.5458    0.0000 C   0  0  0  0  0  0  0  0  0  0  0  0
    1.4875    0.4625    0.0000 C   0  0  0  0  0  0  0  0  0  0  0  0
    0.5500    2.0833    0.0000 C   0  0  0  0  0  0  0  0  0  0  0  0
    2.4417   -3.3167    0.0000 C   0  0  0  0  0  0  0  0  0  0  0  0
    3.3875   -1.7000    0.0000 C   0  0  0  0  0  0  0  0  0  0  0  0
    1.5292   -1.7000    0.0000 C   0  0  0  0  0  0  0  0  0  0  0  0
   -4.1125    0.4625    0.0000 C   0  0  0  0  0  0  0  0  0  0  0  0
    1.5292   -2.7792    0.0000 C   0  0  0  0  0  0  0  0  0  0  0  0
    2.4417   -1.1542    0.0000 C   0  0  0  0  0  0  0  0  0  0  0  0
   -4.1125   -1.7000    0.0000 C   0  0  0  0  0  0  0  0  0  0  0  0
   -5.0500   -0.0792    0.0000 C   0  0  0  0  0  0  0  0  0  0  0  0
   -5.0500   -1.1542    0.0000 C   0  0  0  0  0  0  0  0  0  0  0  0
  2  1  1  0  0  0  0
  3  1  1  0  0  0  0
  4  3  2  0  0  0  0
  5  2  1  0  0  0  0
  6 11  1  0  0  0  0
  7 12  1  0  0  0  0
  8  4  1  0  0  0  0
  9  3  1  0  0  0  0
 10  1  1  0  0  0  0
 11 22  2  0  0  0  0
 12 24  2  0  0  0  0
 13  2  2  0  0  0  0
 14  7  1  0  0  0  0
 15  6  1  0  0  0  0
 16  9  2  0  0  0  0
 17  6  2  0  0  0  0
 18  7  2  0  0  0  0
 19 10  1  0  0  0  0
 20 10  2  0  0  0  0
 21 19  2  0  0  0  0
 22 20  1  0  0  0  0
 23 27  2  0  0  0  0
 24 28  1  0  0  0  0
 25 16  1  0  0  0  0
 26  5  1  0  0  0  0
 27 25  1  0  0  0  0
 28 25  2  0  0  0  0
 29  8  1  0  0  0  0
 30 26  2  0  0  0  0
 31 29  2  0  0  0  0
 11 21  1  0  0  0  0
  5  8  2  0  0  0  0
 31 30  1  0  0  0  0
 12 23  1  0  0  0  0
M  CHG  4   6   1   7   1  14  -1  15  -1
M  END
>  <ID> (5316186)
5316186

>  <Supplier> (5316186)
ChemBridge

>  <clogP> (5316186)
3.760000000000000e+000

>  <RB> (5316186)
3

>  <tPSA> (5316186)
1.211700000000000e+002

>  <Hacc> (5316186)
6

>  <Hdon> (5316186)
0

>  <LogSw> (5316186)
-5.821999999999998e+000

>  <Group> (5316186)
1

>  <Core> (5316186)
060

$$$$
5316181
  -ISIS-  03310818212D

 20 21  0  0  0  0  0  0  0  0999 V2000
   -0.5500   -0.2375    0.0000 C   0  0  0  0  0  0  0  0  0  0  0  0
    0.2042   -0.6875    0.0000 C   0  0  0  0  0  0  0  0  0  0  0  0
    0.2042   -1.5792    0.0000 C   0  0  0  0  0  0  0  0  0  0  0  0
    1.0000   -2.0375    0.0000 C   0  0  0  0  0  0  0  0  0  0  0  0
   -2.1000   -0.2167    0.0000 N   0  0  0  0  0  0  0  0  0  0  0  0
    1.7500   -1.6042    0.0000 C   0  0  0  0  0  0  0  0  0  0  0  0
   -1.3500   -0.6667    0.0000 N   0  0  0  0  0  0  0  0  0  0  0  0
   -0.5500    0.6625    0.0000 O   0  0  0  0  0  0  0  0  0  0  0  0
    0.9792   -0.2500    0.0000 C   0  0  0  0  0  0  0  0  0  0  0  0
   -3.6708   -0.1792    0.0000 C   0  0  0  0  0  0  0  0  0  0  0  0
    1.7500   -0.7167    0.0000 C   0  0  0  0  0  0  0  0  0  0  0  0
   -2.8833   -0.6375    0.0000 C   0  0  0  0  0  0  0  0  0  0  0  0
   -3.6625    0.7000    0.0000 C   0  0  0  0  0  0  0  0  0  0  0  0
    1.0292   -2.9375    0.0000 O   0  0  0  0  0  0  0  0  0  0  0  0
    2.5167   -2.1000    0.0000 O   0  0  0  0  0  0  0  0  0  0  0  0
   -2.8708    1.1500    0.0000 C   0  0  0  0  0  0  0  0  0  0  0  0
   -4.4583   -0.6375    0.0000 C   0  0  0  0  0  0  0  0  0  0  0  0
   -4.4333    1.1708    0.0000 C   0  0  0  0  0  0  0  0  0  0  0  0
   -5.2208   -0.1792    0.0000 C   0  0  0  0  0  0  0  0  0  0  0  0
   -5.2208    0.7333    0.0000 C   0  0  0  0  0  0  0  0  0  0  0  0
  2  1  1  0  0  0  0
  3  2  2  0  0  0  0
  4  3  1  0  0  0  0
  5  7  1  0  0  0  0
  6 11  1  0  0  0  0
  7  1  1  0  0  0  0
  8  1  2  0  0  0  0
  9  2  1  0  0  0  0
 10 12  1  0  0  0  0
 11  9  2  0  0  0  0
 12  5  2  0  0  0  0
 13 10  1  0  0  0  0
 14  4  1  0  0  0  0
 15  6  1  0  0  0  0
 16 13  1  0  0  0  0
 17 10  2  0  0  0  0
 18 13  2  0  0  0  0
 19 17  1  0  0  0  0
 20 19  2  0  0  0  0
  6  4  2  0  0  0  0
 18 20  1  0  0  0  0
M  END
>  <ID> (5316181)
5316181

>  <Supplier> (5316181)
ChemBridge

>  <clogP> (5316181)
2.260000000000000e+000

>  <RB> (5316181)
3

>  <tPSA> (5316181)
8.192000000000000e+001

>  <Hacc> (5316181)
4

>  <Hdon> (5316181)
3

>  <LogSw> (5316181)
-2.522000000000000e+000

>  <Group> (5316181)
1

>  <Core> (5316181)
216

$$$$
5231455
  -ISIS-  03310818212D

 36 39  0  0  0  0  0  0  0  0999 V2000
   -0.3625    0.2458    0.0000 C   0  0  0  0  0  0  0  0  0  0  0  0
    0.9000    0.2458    0.0000 C   0  0  0  0  0  0  0  0  0  0  0  0
    0.2542    0.6000    0.0000 C   0  0  0  0  0  0  0  0  0  0  0  0
   -1.0000    0.6208    0.0000 C   0  0  0  0  0  0  0  0  0  0  0  0
    0.9000   -0.4792    0.0000 C   0  0  0  0  0  0  0  0  0  0  0  0
    0.2542   -0.8375    0.0000 N   0  0  0  0  0  0  0  0  0  0  0  0
   -0.3625   -0.4792    0.0000 C   0  0  0  0  0  0  0  0  0  0  0  0
    1.5375    0.6000    0.0000 C   0  0  0  0  0  0  0  0  0  0  0  0
   -1.6208    0.2625    0.0000 N   0  0  0  0  0  0  0  0  0  0  0  0
    2.1792    0.9625    0.0000 N   0  0  0  0  0  0  0  0  0  0  0  0
    1.5375   -0.8375    0.0000 S   0  0  0  0  0  0  0  0  0  0  0  0
    0.2542    1.3208    0.0000 C   0  0  0  0  0  0  0  0  0  0  0  0
    2.8000   -0.8375    0.0000 C   0  0  0  0  0  0  0  0  0  0  0  0
   -1.0000    1.3458    0.0000 O   0  0  0  0  0  0  0  0  0  0  0  0
    2.8000   -1.5542    0.0000 C   0  0  0  0  0  0  0  0  0  0  0  0
    2.1542   -0.4792    0.0000 C   0  0  0  0  0  0  0  0  0  0  0  0
    3.4167   -0.4792    0.0000 O   0  0  0  0  0  0  0  0  0  0  0  0
   -0.3833    1.6833    0.0000 C   0  0  0  0  0  0  0  0  0  0  0  0
    0.8792    1.6833    0.0000 C   0  0  0  0  0  0  0  0  0  0  0  0
    2.1792   -1.9167    0.0000 C   0  0  0  0  0  0  0  0  0  0  0  0
    3.4167   -1.9167    0.0000 C   0  0  0  0  0  0  0  0  0  0  0  0
   -2.2458    0.6208    0.0000 C   0  0  0  0  0  0  0  0  0  0  0  0
    0.2542    2.7708    0.0000 C   0  0  0  0  0  0  0  0  0  0  0  0
    2.8000   -3.0000    0.0000 C   0  0  0  0  0  0  0  0  0  0  0  0
   -0.3625    2.4000    0.0000 C   0  0  0  0  0  0  0  0  0  0  0  0
    0.8792    2.4000    0.0000 C   0  0  0  0  0  0  0  0  0  0  0  0
    3.4167   -2.6375    0.0000 C   0  0  0  0  0  0  0  0  0  0  0  0
    2.1792   -2.6375    0.0000 C   0  0  0  0  0  0  0  0  0  0  0  0
    2.8000   -3.7167    0.0000 Br  0  0  0  0  0  0  0  0  0  0  0  0
    0.2542    3.4833    0.0000 Br  0  0  0  0  0  0  0  0  0  0  0  0
   -1.0000   -0.8542    0.0000 C   0  0  0  0  0  0  0  0  0  0  0  0
   -2.8625    0.2625    0.0000 C   0  0  0  0  0  0  0  0  0  0  0  0
   -2.2458    1.3458    0.0000 C   0  0  0  0  0  0  0  0  0  0  0  0
   -3.5000    0.6208    0.0000 C   0  0  0  0  0  0  0  0  0  0  0  0
   -2.8625    1.7000    0.0000 C   0  0  0  0  0  0  0  0  0  0  0  0
   -3.4833    1.3458    0.0000 C   0  0  0  0  0  0  0  0  0  0  0  0
  2  3  2  0  0  0  0
  3  1  1  0  0  0  0
  4  1  1  0  0  0  0
  5  6  2  0  0  0  0
  6  7  1  0  0  0  0
  7  1  2  0  0  0  0
  8  2  1  0  0  0  0
  9  4  1  0  0  0  0
 10  8  3  0  0  0  0
 11  5  1  0  0  0  0
 12  3  1  0  0  0  0
 13 16  1  0  0  0  0
 14  4  2  0  0  0  0
 15 13  1  0  0  0  0
 16 11  1  0  0  0  0
 17 13  2  0  0  0  0
 18 12  1  0  0  0  0
 19 12  2  0  0  0  0
 20 15  2  0  0  0  0
 21 15  1  0  0  0  0
 22  9  1  0  0  0  0
 23 26  2  0  0  0  0
 24 27  1  0  0  0  0
 25 18  2  0  0  0  0
 26 19  1  0  0  0  0
 27 21  2  0  0  0  0
 28 20  1  0  0  0  0
 29 24  1  0  0  0  0
 30 23  1  0  0  0  0
 31  7  1  0  0  0  0
 32 22  1  0  0  0  0
 33 22  2  0  0  0  0
 34 32  2  0  0  0  0
 35 33  1  0  0  0  0
 36 35  2  0  0  0  0
  5  2  1  0  0  0  0
 25 23  1  0  0  0  0
 36 34  1  0  0  0  0
 24 28  2  0  0  0  0
M  END
>  <ID> (5231455)
5231455

>  <Supplier> (5231455)
ChemBridge

>  <clogP> (5231455)
6.609999999999999e+000

>  <RB> (5231455)
7

>  <tPSA> (5231455)
8.284999999999999e+001

>  <Hacc> (5231455)
4

>  <Hdon> (5231455)
1

>  <LogSw> (5231455)
-9.637000000000001e+000

>  <Group> (5231455)
3

>  <Core> (5231455)
042

$$$$
7359896
  -ISIS-  03310818262D

 25 27  0  0  0  0  0  0  0  0999 V2000
    0.0000   -0.9542    0.0000 C   0  0  0  0  0  0  0  0  0  0  0  0
    0.7417   -1.3167    0.0000 N   0  0  0  0  0  0  0  0  0  0  0  0
    0.8042   -2.1375    0.0000 C   0  0  0  0  0  0  0  0  0  0  0  0
   -0.0583   -0.1375    0.0000 C   0  0  0  0  0  0  0  0  0  0  0  0
    0.1667   -2.6792    0.0000 N   0  0  0  0  0  0  0  0  0  0  0  0
    0.6250    0.3333    0.0000 C   0  0  0  0  0  0  0  0  0  0  0  0
    1.3667   -0.0292    0.0000 N   0  0  0  0  0  0  0  0  0  0  0  0
    1.5042   -2.5667    0.0000 S   0  0  0  0  0  0  0  0  0  0  0  0
    2.0500    0.4333    0.0000 C   0  0  0  0  0  0  0  0  0  0  0  0
   -0.6833   -1.4167    0.0000 O   0  0  0  0  0  0  0  0  0  0  0  0
    0.4792   -3.4292    0.0000 C   0  0  0  0  0  0  0  0  0  0  0  0
    1.3000   -3.3667    0.0000 C   0  0  0  0  0  0  0  0  0  0  0  0
    1.9917    1.2583    0.0000 O   0  0  0  0  0  0  0  0  0  0  0  0
    2.8542   -0.7500    0.0000 O   0  0  0  0  0  0  0  0  0  0  0  0
    2.7917    0.0708    0.0000 C   0  0  0  0  0  0  0  0  0  0  0  0
   -0.8000    0.2208    0.0000 C   0  0  0  0  0  0  0  0  0  0  0  0
    3.5917   -1.1125    0.0000 C   0  0  0  0  0  0  0  0  0  0  0  0
    0.5667    1.1583    0.0000 C   0  0  0  0  0  0  0  0  0  0  0  0
    3.6500   -1.9292    0.0000 C   0  0  0  0  0  0  0  0  0  0  0  0
    4.2667   -0.6500    0.0000 C   0  0  0  0  0  0  0  0  0  0  0  0
   -0.8625    1.0500    0.0000 C   0  0  0  0  0  0  0  0  0  0  0  0
   -0.1833    1.5125    0.0000 C   0  0  0  0  0  0  0  0  0  0  0  0
    5.0125   -1.0042    0.0000 C   0  0  0  0  0  0  0  0  0  0  0  0
    4.3917   -2.2917    0.0000 C   0  0  0  0  0  0  0  0  0  0  0  0
    5.0750   -1.8292    0.0000 C   0  0  0  0  0  0  0  0  0  0  0  0
  2  1  1  0  0  0  0
  3  2  1  0  0  0  0
  4  1  1  0  0  0  0
  5  3  2  0  0  0  0
  6  4  1  0  0  0  0
  7  6  1  0  0  0  0
  8  3  1  0  0  0  0
  9  7  1  0  0  0  0
 10  1  2  0  0  0  0
 11  5  1  0  0  0  0
 12  8  1  0  0  0  0
 13  9  2  0  0  0  0
 14 15  1  0  0  0  0
 15  9  1  0  0  0  0
 16  4  2  0  0  0  0
 17 14  1  0  0  0  0
 18  6  2  0  0  0  0
 19 17  2  0  0  0  0
 20 17  1  0  0  0  0
 21 16  1  0  0  0  0
 22 21  2  0  0  0  0
 23 20  2  0  0  0  0
 24 19  1  0  0  0  0
 25 23  1  0  0  0  0
 22 18  1  0  0  0  0
 12 11  2  0  0  0  0
 25 24  2  0  0  0  0
M  END
>  <ID> (7359896)
7359896

>  <Supplier> (7359896)
ChemBridge

>  <clogP> (7359896)
3.016000000000000e+000

>  <RB> (7359896)
6

>  <tPSA> (7359896)
8.031999999999999e+001

>  <Hacc> (7359896)
4

>  <Hdon> (7359896)
2

>  <LogSw> (7359896)
-4.351999999999999e+000

>  <Group> (7359896)
3

>  <Core> (7359896)
559

$$$$
7359897
  -ISIS-  03310818262D

 19 20  0  0  0  0  0  0  0  0999 V2000
    1.5875   -1.6917    0.0000 C   0  0  0  0  0  0  0  0  0  0  0  0
    2.3000   -2.1042    0.0000 N   0  0  3  0  0  0  0  0  0  0  0  0
    0.8750   -2.0917    0.0000 N   0  0  0  0  0  0  0  0  0  0  0  0
    4.9542   -1.8875    0.0000 C   0  0  0  0  0  0  0  0  0  0  0  0
    1.5917   -0.9000    0.0000 S   0  0  0  0  0  0  0  0  0  0  0  0
    2.9250   -1.8667    0.0000 C   0  0  0  0  0  0  0  0  0  0  0  0
    2.7042   -1.3750    0.0000 C   0  0  0  0  0  0  0  0  0  0  0  0
    4.2500   -1.4792    0.0000 C   0  0  3  0  0  0  0  0  0  0  0  0
    4.9625   -2.7042    0.0000 O   0  0  0  0  0  0  0  0  0  0  0  0
    3.8417   -2.2000    0.0000 C   0  0  0  0  0  0  0  0  0  0  0  0
    3.5750   -1.7042    0.0000 C   0  0  0  0  0  0  0  0  0  0  0  0
    0.1500   -1.6917    0.0000 C   0  0  0  0  0  0  0  0  0  0  0  0
    5.6667   -1.4792    0.0000 N   0  0  0  0  0  0  0  0  0  0  0  0
   -1.3125   -0.8667    0.0000 C   0  0  0  0  0  0  0  0  0  0  0  0
   -2.0375   -0.4750    0.0000 Cl  0  0  0  0  0  0  0  0  0  0  0  0
    0.1167   -0.8667    0.0000 C   0  0  0  0  0  0  0  0  0  0  0  0
   -0.5708   -2.1125    0.0000 C   0  0  0  0  0  0  0  0  0  0  0  0
   -1.3000   -1.7125    0.0000 C   0  0  0  0  0  0  0  0  0  0  0  0
   -0.5958   -0.4417    0.0000 C   0  0  0  0  0  0  0  0  0  0  0  0
  2  1  1  0  0  0  0
  3  1  1  0  0  0  0
  4  8  1  0  0  0  0
  5  1  2  0  0  0  0
  6  2  1  0  0  0  0
  7  2  1  0  0  0  0
  8 11  1  0  0  0  0
  9  4  2  0  0  0  0
 10  6  1  0  0  0  0
 11  7  1  0  0  0  0
 12  3  1  0  0  0  0
 13  4  1  0  0  0  0
 14 18  1  0  0  0  0
 15 14  1  0  0  0  0
 16 12  2  0  0  0  0
 17 12  1  0  0  0  0
 18 17  2  0  0  0  0
 19 16  1  0  0  0  0
 10  8  1  0  0  0  0
 19 14  2  0  0  0  0
M  END
>  <ID> (7359897)
7359897

>  <Supplier> (7359897)
ChemBridge

>  <clogP> (7359897)
1.266000000000000e+000

>  <RB> (7359897)
2

>  <tPSA> (7359897)
5.836000000000000e+001

>  <Hacc> (7359897)
1

>  <Hdon> (7359897)
2

>  <LogSw> (7359897)
-2.453000000000000e+000

>  <Group> (7359897)
3

>  <Core> (7359897)
051

$$$$
5917214
  -ISIS-  03310818232D

 25 28  0  0  0  0  0  0  0  0999 V2000
   -0.0125    1.7125    0.0000 C   0  0  0  0  0  0  0  0  0  0  0  0
   -0.0125    1.0500    0.0000 C   0  0  0  0  0  0  0  0  0  0  0  0
    0.5667    2.0500    0.0000 C   0  0  0  0  0  0  0  0  0  0  0  0
    0.5667    0.7333    0.0000 N   0  0  0  0  0  0  0  0  0  0  0  0
    1.1292    1.7125    0.0000 N   0  0  3  0  0  0  0  0  0  0  0  0
   -1.1500    1.7125    0.0000 C   0  0  0  0  0  0  0  0  0  0  0  0
   -1.1500    1.0500    0.0000 C   0  0  0  0  0  0  0  0  0  0  0  0
   -0.5708    0.7333    0.0000 S   0  0  0  0  0  0  0  0  0  0  0  0
    1.1292    1.0500    0.0000 C   0  0  0  0  0  0  0  0  0  0  0  0
   -1.7125    0.7333    0.0000 C   0  0  0  0  0  0  0  0  0  0  0  0
   -2.2708    1.0500    0.0000 N   0  0  0  0  0  0  0  0  0  0  0  0
    0.5792    2.7208    0.0000 O   0  0  0  0  0  0  0  0  0  0  0  0
   -1.7125    0.0625    0.0000 O   0  0  0  0  0  0  0  0  0  0  0  0
    1.6292    2.1208    0.0000 C   0  0  0  0  0  0  0  0  0  0  0  0
   -1.7125    2.0500    0.0000 C   0  0  0  0  0  0  0  0  0  0  0  0
   -2.8500    0.7333    0.0000 C   0  0  0  0  0  0  0  0  0  0  0  0
    1.6500    0.6625    0.0000 C   0  0  0  0  0  0  0  0  0  0  0  0
   -2.8500    0.0708    0.0000 C   0  0  0  0  0  0  0  0  0  0  0  0
   -3.4125    1.0708    0.0000 C   0  0  0  0  0  0  0  0  0  0  0  0
    2.2667    1.9708    0.0000 C   0  0  0  0  0  0  0  0  0  0  0  0
    2.2792    0.7958    0.0000 C   0  0  0  0  0  0  0  0  0  0  0  0
   -3.9958    0.7500    0.0000 C   0  0  0  0  0  0  0  0  0  0  0  0
   -3.4333   -0.2667    0.0000 C   0  0  0  0  0  0  0  0  0  0  0  0
   -3.9958    0.0958    0.0000 C   0  0  0  0  0  0  0  0  0  0  0  0
    2.5542    1.3708    0.0000 C   0  0  0  0  0  0  0  0  0  0  0  0
  2  1  2  0  0  0  0
  3  1  1  0  0  0  0
  4  2  1  0  0  0  0
  5  3  1  0  0  0  0
  6  1  1  0  0  0  0
  7  6  2  0  0  0  0
  8  2  1  0  0  0  0
  9  5  1  0  0  0  0
 10  7  1  0  0  0  0
 11 10  1  0  0  0  0
 12  3  2  0  0  0  0
 13 10  2  0  0  0  0
 14  5  1  0  0  0  0
 15  6  1  0  0  0  0
 16 11  1  0  0  0  0
 17  9  1  0  0  0  0
 18 16  2  0  0  0  0
 19 16  1  0  0  0  0
 20 14  1  0  0  0  0
 21 17  1  0  0  0  0
 22 19  2  0  0  0  0
 23 18  1  0  0  0  0
 24 22  1  0  0  0  0
 25 20  1  0  0  0  0
  8  7  1  0  0  0  0
  9  4  2  0  0  0  0
 25 21  1  0  0  0  0
 24 23  2  0  0  0  0
M  END
>  <ID> (5917214)
5917214

>  <Supplier> (5917214)
ChemBridge

>  <clogP> (5917214)
3.020000000000000e+000

>  <RB> (5917214)
2

>  <tPSA> (5917214)
6.399000000000000e+001

>  <Hacc> (5917214)
3

>  <Hdon> (5917214)
1

>  <LogSw> (5917214)
-4.356000000000000e+000

>  <Group> (5917214)
1

>  <Core> (5917214)
063

$$$$
5917215
  -ISIS-  03310818232D

 30 33  0  0  0  0  0  0  0  0999 V2000
   -3.2958    0.0500    0.0000 S   0  0  3  0  0  0  0  0  0  0  0  0
    0.6375    0.1500    0.0000 C   0  0  0  0  0  0  0  0  0  0  0  0
    0.6875    0.9000    0.0000 C   0  0  0  0  0  0  0  0  0  0  0  0
    1.3500   -0.1042    0.0000 S   0  0  0  0  0  0  0  0  0  0  0  0
    1.4167    1.0958    0.0000 C   0  0  0  0  0  0  0  0  0  0  0  0
   -1.3208   -0.3000    0.0000 C   0  0  0  0  0  0  0  0  0  0  0  0
    0.0042   -0.2500    0.0000 N   0  0  0  0  0  0  0  0  0  0  0  0
   -0.6625    0.1000    0.0000 C   0  0  0  0  0  0  0  0  0  0  0  0
    1.8167    0.4708    0.0000 C   0  0  0  0  0  0  0  0  0  0  0  0
   -3.9583    0.4208    0.0000 N   0  0  3  0  0  0  0  0  0  0  0  0
   -2.6208   -0.3292    0.0000 C   0  0  0  0  0  0  0  0  0  0  0  0
   -1.9708    0.0833    0.0000 C   0  0  0  0  0  0  0  0  0  0  0  0
    0.1167    1.3708    0.0000 C   0  0  0  0  0  0  0  0  0  0  0  0
   -0.4500    1.8458    0.0000 N   0  0  0  0  0  0  0  0  0  0  0  0
   -3.6625   -0.6000    0.0000 O   0  0  0  0  0  0  0  0  0  0  0  0
   -2.9125    0.7000    0.0000 O   0  0  0  0  0  0  0  0  0  0  0  0
   -1.3208   -1.0792    0.0000 C   0  0  0  0  0  0  0  0  0  0  0  0
   -0.6833    0.8625    0.0000 O   0  0  0  0  0  0  0  0  0  0  0  0
   -2.6208   -1.0667    0.0000 C   0  0  0  0  0  0  0  0  0  0  0  0
   -1.9708   -1.4500    0.0000 C   0  0  0  0  0  0  0  0  0  0  0  0
   -5.2708    1.1708    0.0000 O   0  0  0  0  0  0  0  0  0  0  0  0
   -3.9458    1.1958    0.0000 C   0  0  0  0  0  0  0  0  0  0  0  0
   -4.5958    0.0500    0.0000 C   0  0  0  0  0  0  0  0  0  0  0  0
   -0.6958   -1.4792    0.0000 Cl  0  0  0  0  0  0  0  0  0  0  0  0
    1.7542    1.7708    0.0000 C   0  0  0  0  0  0  0  0  0  0  0  0
    2.5792    0.5000    0.0000 C   0  0  0  0  0  0  0  0  0  0  0  0
   -5.2458    0.4208    0.0000 C   0  0  0  0  0  0  0  0  0  0  0  0
   -4.5958    1.5625    0.0000 C   0  0  0  0  0  0  0  0  0  0  0  0
    2.5167    1.8208    0.0000 C   0  0  0  0  0  0  0  0  0  0  0  0
    2.9292    1.1833    0.0000 C   0  0  0  0  0  0  0  0  0  0  0  0
  2  7  1  0  0  0  0
  3  2  2  0  0  0  0
  4  2  1  0  0  0  0
  5  3  1  0  0  0  0
  6 12  1  0  0  0  0
  7  8  1  0  0  0  0
  8  6  1  0  0  0  0
  9  4  1  0  0  0  0
 10  1  1  0  0  0  0
 11  1  1  0  0  0  0
 12 11  2  0  0  0  0
 13  3  1  0  0  0  0
 14 13  3  0  0  0  0
 15  1  2  0  0  0  0
 16  1  2  0  0  0  0
 17 20  1  0  0  0  0
 18  8  2  0  0  0  0
 19 11  1  0  0  0  0
 20 19  2  0  0  0  0
 21 27  1  0  0  0  0
 22 10  1  0  0  0  0
 23 10  1  0  0  0  0
 24 17  1  0  0  0  0
 25  5  1  0  0  0  0
 26  9  1  0  0  0  0
 27 23  1  0  0  0  0
 28 22  1  0  0  0  0
 29 25  1  0  0  0  0
 30 26  1  0  0  0  0
 21 28  1  0  0  0  0
  6 17  2  0  0  0  0
  9  5  2  0  0  0  0
 30 29  1  0  0  0  0
M  END
>  <ID> (5917215)
5917215

>  <Supplier> (5917215)
ChemBridge

>  <clogP> (5917215)
2.380000000000000e+000

>  <RB> (5917215)
3

>  <tPSA> (5917215)
9.950000000000003e+001

>  <Hacc> (5917215)
6

>  <Hdon> (5917215)
1

>  <LogSw> (5917215)
-4.893999999999998e+000

>  <Group> (5917215)
1

>  <Core> (5917215)
129

$$$$
9043081
  -ISIS-  03310818282D

 18 19  0  0  0  0  0  0  0  0999 V2000
    4.0667    1.4833    0.0000 C   0  0  0  0  0  0  0  0  0  0  0  0
    4.7125    1.8583    0.0000 N   0  0  3  0  0  0  0  0  0  0  0  0
    3.4167    1.8583    0.0000 N   0  0  0  0  0  0  0  0  0  0  0  0
    4.0667    0.7333    0.0000 O   0  0  0  0  0  0  0  0  0  0  0  0
    5.3625    1.4833    0.0000 C   0  0  3  0  0  0  0  0  0  0  0  0
    4.7125    2.6083    0.0000 C   0  0  3  0  0  0  0  0  0  0  0  0
    2.7667    1.4833    0.0000 C   0  0  0  0  0  0  0  0  0  0  0  0
    2.1167    1.8583    0.0000 C   0  0  0  0  0  0  0  0  0  0  0  0
    1.4667    1.4833    0.0000 C   0  0  0  0  0  0  0  0  0  0  0  0
    6.0125    2.6083    0.0000 C   0  0  0  0  0  0  0  0  0  0  0  0
    2.1167    0.3583    0.0000 C   0  0  0  0  0  0  0  0  0  0  0  0
    2.7667    0.7333    0.0000 C   0  0  0  0  0  0  0  0  0  0  0  0
    6.0125    1.8583    0.0000 C   0  0  0  0  0  0  0  0  0  0  0  0
    5.3625    2.9833    0.0000 C   0  0  0  0  0  0  0  0  0  0  0  0
    4.0667    2.9833    0.0000 C   0  0  0  0  0  0  0  0  0  0  0  0
    5.3625    0.7333    0.0000 C   0  0  0  0  0  0  0  0  0  0  0  0
    1.4667    0.7333    0.0000 C   0  0  0  0  0  0  0  0  0  0  0  0
    0.8167    1.8583    0.0000 C   0  0  0  0  0  0  0  0  0  0  0  0
  2  1  1  0  0  0  0
  3  1  1  0  0  0  0
  4  1  2  0  0  0  0
  5  2  1  0  0  0  0
  6  2  1  0  0  0  0
  7  3  1  0  0  0  0
  8  7  2  0  0  0  0
  9  8  1  0  0  0  0
 10 14  1  0  0  0  0
 11 12  2  0  0  0  0
 12  7  1  0  0  0  0
 13  5  1  0  0  0  0
 14  6  1  0  0  0  0
 15  6  1  0  0  0  0
 16  5  1  0  0  0  0
 17 11  1  0  0  0  0
 18  9  1  0  0  0  0
 10 13  1  0  0  0  0
  9 17  2  0  0  0  0
M  END
>  <ID> (9043081)
9043081

>  <Supplier> (9043081)
ChemBridge

>  <clogP> (9043081)
3.387000000000000e+000

>  <RB> (9043081)
1

>  <tPSA> (9043081)
3.234000000000000e+001

>  <Hacc> (9043081)
1

>  <Hdon> (9043081)
1

>  <LogSw> (9043081)
-4.521999999999999e+000

>  <Group> (9043081)
2

$$$$
5917210
  -ISIS-  03310818232D

 18 19  0  0  0  0  0  0  0  0999 V2000
   -1.1625   -0.0667    0.0000 C   0  0  0  0  0  0  0  0  0  0  0  0
   -1.1625    0.6958    0.0000 N   0  0  3  0  0  0  0  0  0  0  0  0
   -0.5000   -0.4542    0.0000 N   0  0  0  0  0  0  0  0  0  0  0  0
   -1.8208   -0.4542    0.0000 N   0  0  0  0  0  0  0  0  0  0  0  0
   -0.5125    1.0708    0.0000 C   0  0  0  0  0  0  0  0  0  0  0  0
    0.1375    1.4500    0.0000 N   0  0  0  0  0  0  0  0  0  0  0  0
   -1.8125    1.0708    0.0000 C   0  0  0  0  0  0  0  0  0  0  0  0
   -1.8208   -1.2167    0.0000 C   0  0  0  0  0  0  0  0  0  0  0  0
   -0.5000   -1.2167    0.0000 C   0  0  0  0  0  0  0  0  0  0  0  0
   -1.1625   -1.6042    0.0000 C   0  0  0  0  0  0  0  0  0  0  0  0
   -1.8125    1.8208    0.0000 C   0  0  0  0  0  0  0  0  0  0  0  0
   -2.4833   -1.5875    0.0000 C   0  0  0  0  0  0  0  0  0  0  0  0
    0.1542   -1.5875    0.0000 C   0  0  0  0  0  0  0  0  0  0  0  0
   -2.4708    2.2125    0.0000 C   0  0  0  0  0  0  0  0  0  0  0  0
   -1.1500    2.2333    0.0000 C   0  0  0  0  0  0  0  0  0  0  0  0
   -1.1708    3.0000    0.0000 C   0  0  0  0  0  0  0  0  0  0  0  0
   -2.4958    2.9833    0.0000 C   0  0  0  0  0  0  0  0  0  0  0  0
   -1.8333    3.3833    0.0000 C   0  0  0  0  0  0  0  0  0  0  0  0
  2  1  1  0  0  0  0
  3  1  1  0  0  0  0
  4  1  2  0  0  0  0
  5  2  1  0  0  0  0
  6  5  3  0  0  0  0
  7  2  1  0  0  0  0
  8  4  1  0  0  0  0
  9  3  2  0  0  0  0
 10  8  2  0  0  0  0
 11  7  1  0  0  0  0
 12  8  1  0  0  0  0
 13  9  1  0  0  0  0
 14 11  1  0  0  0  0
 15 11  2  0  0  0  0
 16 15  1  0  0  0  0
 17 14  2  0  0  0  0
 18 16  2  0  0  0  0
  9 10  1  0  0  0  0
 17 18  1  0  0  0  0
M  END
>  <ID> (5917210)
5917210

>  <Supplier> (5917210)
ChemBridge

>  <clogP> (5917210)
2.780000000000000e+000

>  <RB> (5917210)
3

>  <tPSA> (5917210)
5.281000000000000e+001

>  <Hacc> (5917210)
3

>  <Hdon> (5917210)
0

>  <LogSw> (5917210)
-3.313000000000000e+000

>  <Group> (5917210)
2

$$$$
9043086
  -ISIS-  03310818282D

 25 27  0  0  0  0  0  0  0  0999 V2000
    4.4042    1.7375    0.0000 C   0  0  0  0  0  0  0  0  0  0  0  0
    5.0542    1.3625    0.0000 N   0  0  3  0  0  0  0  0  0  0  0  0
    3.7542    1.3625    0.0000 N   0  0  0  0  0  0  0  0  0  0  0  0
    6.3542    0.6125    0.0000 N   0  0  3  0  0  0  0  0  0  0  0  0
    7.6542    0.6125    0.0000 C   0  0  0  0  0  0  0  0  0  0  0  0
    7.0042    0.2375    0.0000 C   0  0  0  0  0  0  0  0  0  0  0  0
    4.4042    2.4875    0.0000 O   0  0  0  0  0  0  0  0  0  0  0  0
    5.7042    1.7375    0.0000 C   0  0  0  0  0  0  0  0  0  0  0  0
    5.0542    0.6125    0.0000 C   0  0  0  0  0  0  0  0  0  0  0  0
    8.3042    0.2375    0.0000 C   0  0  0  0  0  0  0  0  0  0  0  0
    3.1042    1.7375    0.0000 C   0  0  0  0  0  0  0  0  0  0  0  0
    5.7042    0.2375    0.0000 C   0  0  0  0  0  0  0  0  0  0  0  0
    6.3542    1.3625    0.0000 C   0  0  0  0  0  0  0  0  0  0  0  0
    1.8042    2.4875    0.0000 C   0  0  0  0  0  0  0  0  0  0  0  0
    2.4542    1.3625    0.0000 C   0  0  0  0  0  0  0  0  0  0  0  0
    3.1042    2.4875    0.0000 C   0  0  0  0  0  0  0  0  0  0  0  0
    2.4542    2.8625    0.0000 C   0  0  0  0  0  0  0  0  0  0  0  0
    1.8042    1.7375    0.0000 C   0  0  0  0  0  0  0  0  0  0  0  0
    1.1542    2.8625    0.0000 O   0  0  0  0  0  0  0  0  0  0  0  0
    7.6542    1.3625    0.0000 C   0  0  0  0  0  0  0  0  0  0  0  0
    8.3042   -0.5125    0.0000 C   0  0  0  0  0  0  0  0  0  0  0  0
    8.9542    0.6125    0.0000 C   0  0  0  0  0  0  0  0  0  0  0  0
    0.5042    2.4875    0.0000 C   0  0  0  0  0  0  0  0  0  0  0  0
    8.3042    1.7375    0.0000 C   0  0  0  0  0  0  0  0  0  0  0  0
    8.9542    1.3625    0.0000 C   0  0  0  0  0  0  0  0  0  0  0  0
  2  1  1  0  0  0  0
  3  1  1  0  0  0  0
  4 12  1  0  0  0  0
  5  6  1  0  0  0  0
  6  4  1  0  0  0  0
  7  1  2  0  0  0  0
  8  2  1  0  0  0  0
  9  2  1  0  0  0  0
 10  5  1  0  0  0  0
 11  3  1  0  0  0  0
 12  9  1  0  0  0  0
 13  8  1  0  0  0  0
 14 17  2  0  0  0  0
 15 11  1  0  0  0  0
 16 11  2  0  0  0  0
 17 16  1  0  0  0  0
 18 15  2  0  0  0  0
 19 14  1  0  0  0  0
 20  5  2  0  0  0  0
 21 10  1  0  0  0  0
 22 10  2  0  0  0  0
 23 19  1  0  0  0  0
 24 20  1  0  0  0  0
 25 24  2  0  0  0  0
 13  4  1  0  0  0  0
 18 14  1  0  0  0  0
 22 25  1  0  0  0  0
M  END
>  <ID> (9043086)
9043086

>  <Supplier> (9043086)
ChemBridge

>  <clogP> (9043086)
3.642000000000000e+000

>  <RB> (9043086)
3

>  <tPSA> (9043086)
4.481000000000002e+001

>  <Hacc> (9043086)
3

>  <Hdon> (9043086)
1

>  <LogSw> (9043086)
-4.497000000000000e+000

>  <Group> (9043086)
2

>  <Core> (9043086)
166

$$$$
9043084
  -ISIS-  03310818282D

 23 25  0  0  0  0  0  0  0  0999 V2000
    3.3542    0.7083    0.0000 N   0  0  3  0  0  0  0  0  0  0  0  0
    2.6667    0.4083    0.0000 C   0  0  0  0  0  0  0  0  0  0  0  0
    2.7417   -0.3417    0.0000 N   0  0  0  0  0  0  0  0  0  0  0  0
    3.8542    0.1500    0.0000 C   0  0  0  0  0  0  0  0  0  0  0  0
    3.4792   -0.5000    0.0000 N   0  0  0  0  0  0  0  0  0  0  0  0
    4.6000    0.2333    0.0000 S   0  0  0  0  0  0  0  0  0  0  0  0
    2.0167    0.7833    0.0000 C   0  0  0  0  0  0  0  0  0  0  0  0
    3.5042    1.4458    0.0000 C   0  0  0  0  0  0  0  0  0  0  0  0
    0.7167    1.5333    0.0000 N   0  0  0  0  0  0  0  0  0  0  0  0
    4.2167    1.6750    0.0000 C   0  0  0  0  0  0  0  0  0  0  0  0
    4.3792    2.4083    0.0000 C   0  0  0  0  0  0  0  0  0  0  0  0
    5.0417   -0.3792    0.0000 C   0  0  0  0  0  0  0  0  0  0  0  0
    7.2792   -0.1417    0.0000 C   0  0  0  0  0  0  0  0  0  0  0  0
    5.7875   -0.3000    0.0000 C   0  0  0  0  0  0  0  0  0  0  0  0
    8.0250   -0.0625    0.0000 F   0  0  0  0  0  0  0  0  0  0  0  0
    6.8375    0.4708    0.0000 C   0  0  0  0  0  0  0  0  0  0  0  0
    6.9750   -0.8292    0.0000 C   0  0  0  0  0  0  0  0  0  0  0  0
    6.0917    0.3875    0.0000 C   0  0  0  0  0  0  0  0  0  0  0  0
    6.2292   -0.9042    0.0000 C   0  0  0  0  0  0  0  0  0  0  0  0
    0.7167    0.7833    0.0000 C   0  0  0  0  0  0  0  0  0  0  0  0
    1.3667    1.9083    0.0000 C   0  0  0  0  0  0  0  0  0  0  0  0
    1.3667    0.4083    0.0000 C   0  0  0  0  0  0  0  0  0  0  0  0
    2.0167    1.5333    0.0000 C   0  0  0  0  0  0  0  0  0  0  0  0
  2  1  1  0  0  0  0
  3  2  2  0  0  0  0
  4  1  1  0  0  0  0
  5  4  2  0  0  0  0
  6  4  1  0  0  0  0
  7  2  1  0  0  0  0
  8  1  1  0  0  0  0
  9 21  1  0  0  0  0
 10  8  1  0  0  0  0
 11 10  2  0  0  0  0
 12  6  1  0  0  0  0
 13 17  2  0  0  0  0
 14 12  1  0  0  0  0
 15 13  1  0  0  0  0
 16 18  2  0  0  0  0
 17 19  1  0  0  0  0
 18 14  1  0  0  0  0
 19 14  2  0  0  0  0
 20 22  1  0  0  0  0
 21 23  2  0  0  0  0
 22  7  2  0  0  0  0
 23  7  1  0  0  0  0
  3  5  1  0  0  0  0
  9 20  2  0  0  0  0
 16 13  1  0  0  0  0
M  END
>  <ID> (9043084)
9043084

>  <Supplier> (9043084)
ChemBridge

>  <clogP> (9043084)
2.786000000000000e+000

>  <RB> (9043084)
6

>  <tPSA> (9043084)
4.359999999999999e+001

>  <Hacc> (9043084)
3

>  <Hdon> (9043084)
0

>  <LogSw> (9043084)
-5.216000000000000e+000

>  <Group> (9043084)
2

>  <Core> (9043084)
028

$$$$
5154334
  -ISIS-  03310818212D

 21 21  0  0  0  0  0  0  0  0999 V2000
    1.7000    0.4208    0.0000 S   0  0  3  0  0  0  0  0  0  0  0  0
   -0.5000    1.1833    0.0000 C   0  0  0  0  0  0  0  0  0  0  0  0
    0.3792    1.1833    0.0000 N   0  0  0  0  0  0  0  0  0  0  0  0
   -0.9458    1.9458    0.0000 C   0  0  3  0  0  0  0  0  0  0  0  0
   -0.9458    0.4208    0.0000 C   0  0  3  0  0  0  0  0  0  0  0  0
    0.8167    0.4208    0.0000 O   0  0  0  0  0  0  0  0  0  0  0  0
    2.5792    0.4208    0.0000 C   0  0  0  0  0  0  0  0  0  0  0  0
    1.7000    1.3000    0.0000 O   0  0  0  0  0  0  0  0  0  0  0  0
    1.7000   -0.4792    0.0000 O   0  0  0  0  0  0  0  0  0  0  0  0
   -1.7208    0.8625    0.0000 F   0  0  0  0  0  0  0  0  0  0  0  0
   -1.4000   -0.3542    0.0000 F   0  0  0  0  0  0  0  0  0  0  0  0
   -1.4000    2.7083    0.0000 F   0  0  0  0  0  0  0  0  0  0  0  0
   -1.7208    1.4833    0.0000 F   0  0  0  0  0  0  0  0  0  0  0  0
   -0.1833    2.3833    0.0000 F   0  0  0  0  0  0  0  0  0  0  0  0
   -0.1833   -0.0292    0.0000 F   0  0  0  0  0  0  0  0  0  0  0  0
    3.0167   -0.3542    0.0000 C   0  0  0  0  0  0  0  0  0  0  0  0
    3.0167    1.1833    0.0000 C   0  0  0  0  0  0  0  0  0  0  0  0
    3.9000    1.1833    0.0000 C   0  0  0  0  0  0  0  0  0  0  0  0
    3.9000   -0.3542    0.0000 C   0  0  0  0  0  0  0  0  0  0  0  0
    4.3375    0.4208    0.0000 C   0  0  0  0  0  0  0  0  0  0  0  0
    5.2167    0.4208    0.0000 C   0  0  0  0  0  0  0  0  0  0  0  0
  2  3  2  0  0  0  0
  3  6  1  0  0  0  0
  4  2  1  0  0  0  0
  5  2  1  0  0  0  0
  6  1  1  0  0  0  0
  7  1  1  0  0  0  0
  8  1  2  0  0  0  0
  9  1  2  0  0  0  0
 10  5  1  0  0  0  0
 11  5  1  0  0  0  0
 12  4  1  0  0  0  0
 13  4  1  0  0  0  0
 14  4  1  0  0  0  0
 15  5  1  0  0  0  0
 16  7  2  0  0  0  0
 17  7  1  0  0  0  0
 18 17  2  0  0  0  0
 19 16  1  0  0  0  0
 20 18  1  0  0  0  0
 21 20  1  0  0  0  0
 20 19  2  0  0  0  0
M  END
>  <ID> (5154334)
5154334

>  <Supplier> (5154334)
ChemBridge

>  <clogP> (5154334)
2.740000000000000e+000

>  <RB> (5154334)
3

>  <tPSA> (5154334)
5.573000000000000e+001

>  <Hacc> (5154334)
4

>  <Hdon> (5154334)
0

>  <LogSw> (5154334)
-3.984000000000000e+000

>  <Group> (5154334)
1

$$$$
5154335
  -ISIS-  03310818212D

 18 18  0  0  0  0  0  0  0  0999 V2000
   -2.0458   -1.1542    0.0000 C   0  0  3  0  0  0  0  0  0  0  0  0
   -3.5208   -0.3292    0.0000 C   0  0  3  0  0  0  0  0  0  0  0  0
   -2.8833   -2.6375    0.0000 C   0  0  3  0  0  0  0  0  0  0  0  0
   -1.2000    0.3125    0.0000 C   0  0  0  0  0  0  0  0  0  0  0  0
   -0.5625   -2.0292    0.0000 N   0  0  0  0  0  0  0  0  0  0  0  0
   -0.3625    1.7958    0.0000 N   0  0  0  0  0  0  0  0  0  0  0  0
   -4.3625   -1.8000    0.0000 F   0  0  0  0  0  0  0  0  0  0  0  0
   -2.6833    1.1500    0.0000 F   0  0  0  0  0  0  0  0  0  0  0  0
   -1.3958   -3.4875    0.0000 F   0  0  0  0  0  0  0  0  0  0  0  0
   -4.3625   -1.8000    0.0000 F   0  0  0  0  0  0  0  0  0  0  0  0
   -3.7208   -4.1167    0.0000 F   0  0  0  0  0  0  0  0  0  0  0  0
   -5.0000    0.5125    0.0000 F   0  0  0  0  0  0  0  0  0  0  0  0
    0.9375   -1.1542    0.0000 C   0  0  0  0  0  0  0  0  0  0  0  0
    2.4375   -2.0042    0.0000 C   0  0  0  0  0  0  0  0  0  0  0  0
    0.9375    0.5458    0.0000 C   0  0  0  0  0  0  0  0  0  0  0  0
    2.4000    1.4125    0.0000 C   0  0  0  0  0  0  0  0  0  0  0  0
    3.9000   -1.1292    0.0000 C   0  0  0  0  0  0  0  0  0  0  0  0
    3.9000    0.5625    0.0000 C   0  0  0  0  0  0  0  0  0  0  0  0
  2  1  1  0  0  0  0
  3  1  1  0  0  0  0
  4  1  1  0  0  0  0
  5  1  1  0  0  0  0
  6  4  3  0  0  0  0
  7  2  1  0  0  0  0
  8  2  1  0  0  0  0
  9  3  1  0  0  0  0
 10  3  1  0  0  0  0
 11  3  1  0  0  0  0
 12  2  1  0  0  0  0
 13  5  1  0  0  0  0
 14 13  2  0  0  0  0
 15 13  1  0  0  0  0
 16 15  2  0  0  0  0
 17 14  1  0  0  0  0
 18 16  1  0  0  0  0
 17 18  2  0  0  0  0
M  END
>  <ID> (5154335)
5154335

>  <Supplier> (5154335)
ChemBridge

>  <clogP> (5154335)
2.890000000000000e+000

>  <RB> (5154335)
2

>  <tPSA> (5154335)
3.582000000000000e+001

>  <Hacc> (5154335)
1

>  <Hdon> (5154335)
1

>  <LogSw> (5154335)
-3.889000000000000e+000

>  <Group> (5154335)
3

$$$$
5154333
  -ISIS-  03310818212D

 23 23  0  0  0  0  0  0  0  0999 V2000
    2.4042    1.3958    0.0000 C   0  0  3  0  0  0  0  0  0  0  0  0
   -0.3500   -0.2042    0.0000 N   0  3  0  0  0  0  0  0  0  0  0  0
    3.3292    1.9583    0.0000 C   0  0  3  0  0  0  0  0  0  0  0  0
    2.9667    0.4708    0.0000 C   0  0  3  0  0  0  0  0  0  0  0  0
    1.8667    2.3125    0.0000 C   0  0  3  0  0  0  0  0  0  0  0  0
    1.5042    0.8500    0.0000 S   0  0  0  0  0  0  0  0  0  0  0  0
   -0.3500    0.8500    0.0000 C   0  0  0  0  0  0  0  0  0  0  0  0
    0.5667    1.3958    0.0000 C   0  0  0  0  0  0  0  0  0  0  0  0
   -1.2708   -0.7292    0.0000 O   0  5  0  0  0  0  0  0  0  0  0  0
    0.5667   -0.7500    0.0000 O   0  0  0  0  0  0  0  0  0  0  0  0
    3.8875    1.0333    0.0000 F   0  0  0  0  0  0  0  0  0  0  0  0
    4.2500    2.4958    0.0000 F   0  0  0  0  0  0  0  0  0  0  0  0
    3.5042   -0.4500    0.0000 F   0  0  0  0  0  0  0  0  0  0  0  0
    3.8875    1.0333    0.0000 F   0  0  0  0  0  0  0  0  0  0  0  0
    2.0500   -0.0875    0.0000 F   0  0  0  0  0  0  0  0  0  0  0  0
    2.7875    2.8708    0.0000 F   0  0  0  0  0  0  0  0  0  0  0  0
    1.3042    3.2333    0.0000 F   0  0  0  0  0  0  0  0  0  0  0  0
    0.9500    1.7708    0.0000 F   0  0  0  0  0  0  0  0  0  0  0  0
    2.7875    2.8708    0.0000 F   0  0  0  0  0  0  0  0  0  0  0  0
   -1.2708    1.3708    0.0000 C   0  0  0  0  0  0  0  0  0  0  0  0
    0.5667    2.4583    0.0000 C   0  0  0  0  0  0  0  0  0  0  0  0
   -1.2708    2.4333    0.0000 C   0  0  0  0  0  0  0  0  0  0  0  0
   -0.3500    2.9708    0.0000 C   0  0  0  0  0  0  0  0  0  0  0  0
  2  7  1  0  0  0  0
  3  1  1  0  0  0  0
  4  1  1  0  0  0  0
  5  1  1  0  0  0  0
  6  1  1  0  0  0  0
  7  8  2  0  0  0  0
  8  6  1  0  0  0  0
  9  2  1  0  0  0  0
 10  2  2  0  0  0  0
 11  3  1  0  0  0  0
 12  3  1  0  0  0  0
 13  4  1  0  0  0  0
 14  4  1  0  0  0  0
 15  4  1  0  0  0  0
 16  3  1  0  0  0  0
 17  5  1  0  0  0  0
 18  5  1  0  0  0  0
 19  5  1  0  0  0  0
 20  7  1  0  0  0  0
 21  8  1  0  0  0  0
 22 23  1  0  0  0  0
 23 21  2  0  0  0  0
 22 20  2  0  0  0  0
M  CHG  2   2   1   9  -1
M  END
>  <ID> (5154333)
5154333

>  <Supplier> (5154333)
ChemBridge

>  <clogP> (5154333)
5.950000000000000e+000

>  <RB> (5154333)
2

>  <tPSA> (5154333)
4.313999999999999e+001

>  <Hacc> (5154333)
2

>  <Hdon> (5154333)
0

>  <LogSw> (5154333)
-7.392000000000000e+000

>  <Group> (5154333)
2

$$$$
5348067
  -ISIS-  03310818222D

 22 24  0  0  0  0  0  0  0  0999 V2000
   -1.9458    0.8500    0.0000 C   0  0  0  0  0  0  0  0  0  0  0  0
   -1.2958   -0.3375    0.0000 N   0  0  0  0  0  0  0  0  0  0  0  0
   -2.3208    0.2500    0.0000 C   0  0  0  0  0  0  0  0  0  0  0  0
   -2.2333    1.4625    0.0000 C   0  0  0  0  0  0  0  0  0  0  0  0
   -1.9958   -0.3375    0.0000 C   0  0  0  0  0  0  0  0  0  0  0  0
    0.6875   -0.6542    0.0000 C   0  0  0  0  0  0  0  0  0  0  0  0
   -0.9458    0.2125    0.0000 C   0  0  0  0  0  0  0  0  0  0  0  0
    1.0375   -1.3167    0.0000 S   0  0  0  0  0  0  0  0  0  0  0  0
    0.0000   -0.5042    0.0000 C   0  0  0  0  0  0  0  0  0  0  0  0
   -0.2333    0.2125    0.0000 C   0  0  0  0  0  0  0  0  0  0  0  0
   -1.2708    0.8500    0.0000 C   0  0  0  0  0  0  0  0  0  0  0  0
    1.7167   -1.2292    0.0000 C   0  0  0  0  0  0  0  0  0  0  0  0
   -2.9625    1.4625    0.0000 O   0  0  0  0  0  0  0  0  0  0  0  0
    1.2875   -0.2042    0.0000 C   0  0  0  0  0  0  0  0  0  0  0  0
    1.8792   -0.5667    0.0000 C   0  0  0  0  0  0  0  0  0  0  0  0
   -1.8625    2.0458    0.0000 O   0  0  0  0  0  0  0  0  0  0  0  0
   -2.9958    0.2500    0.0000 C   0  0  0  0  0  0  0  0  0  0  0  0
   -2.3458   -0.9167    0.0000 C   0  0  0  0  0  0  0  0  0  0  0  0
   -0.9958    2.0500    0.0000 C   0  0  0  0  0  0  0  0  0  0  0  0
   -3.3708   -0.3167    0.0000 C   0  0  0  0  0  0  0  0  0  0  0  0
   -0.6125    1.3500    0.0000 C   0  0  0  0  0  0  0  0  0  0  0  0
   -3.0458   -0.9167    0.0000 C   0  0  0  0  0  0  0  0  0  0  0  0
  2  7  1  0  0  0  0
  3  1  2  0  0  0  0
  4  1  1  0  0  0  0
  5  3  1  0  0  0  0
  6  9  1  0  0  0  0
  7 11  2  0  0  0  0
  8  6  1  0  0  0  0
  9 10  2  0  0  0  0
 10  7  1  0  0  0  0
 11  1  1  0  0  0  0
 12  8  1  0  0  0  0
 13  4  2  0  0  0  0
 14  6  2  0  0  0  0
 15 14  1  0  0  0  0
 16  4  1  0  0  0  0
 17  3  1  0  0  0  0
 18  5  1  0  0  0  0
 19 16  1  0  0  0  0
 20 17  2  0  0  0  0
 21 19  1  0  0  0  0
 22 20  1  0  0  0  0
  2  5  2  0  0  0  0
 18 22  2  0  0  0  0
 12 15  2  0  0  0  0
M  END
>  <ID> (5348067)
5348067

>  <Supplier> (5348067)
ChemBridge

>  <clogP> (5348067)
4.609999999999999e+000

>  <RB> (5348067)
3

>  <tPSA> (5348067)
3.919000000000000e+001

>  <Hacc> (5348067)
3

>  <Hdon> (5348067)
0

>  <LogSw> (5348067)
-5.393000000000000e+000

>  <Group> (5348067)
3

>  <Core> (5348067)
275

$$$$
5154338
  -ISIS-  03310818212D

 28 28  0  0  0  0  0  0  0  0999 V2000
   -1.6500   -1.4000    0.0000 C   0  0  3  0  0  0  0  0  0  0  0  0
   -1.4500    0.9625    0.0000 N   0  0  3  0  0  0  0  0  0  0  0  0
   -0.3708   -0.3167    0.0000 C   0  0  3  0  0  0  0  0  0  0  0  0
   -2.7333   -0.1167    0.0000 C   0  0  0  0  0  0  0  0  0  0  0  0
   -4.3958    0.0458    0.0000 C   0  0  0  0  0  0  0  0  0  0  0  0
   -1.4333   -3.0542    0.0000 C   0  0  3  0  0  0  0  0  0  0  0  0
   -3.1500   -2.1000    0.0000 C   0  0  3  0  0  0  0  0  0  0  0  0
   -1.3125    2.6458    0.0000 C   0  0  0  0  0  0  0  0  0  0  0  0
   -5.3500   -1.3375    0.0000 C   0  0  3  0  0  0  0  0  0  0  0  0
   -5.1125    1.5625    0.0000 C   0  0  3  0  0  0  0  0  0  0  0  0
    0.9042    0.7625    0.0000 F   0  0  0  0  0  0  0  0  0  0  0  0
    1.2500   -0.7167    0.0000 F   0  0  0  0  0  0  0  0  0  0  0  0
   -2.6958    3.5833    0.0000 O   0  0  0  0  0  0  0  0  0  0  0  0
    0.2500   -2.8375    0.0000 F   0  0  0  0  0  0  0  0  0  0  0  0
   -3.0958   -3.2792    0.0000 F   0  0  0  0  0  0  0  0  0  0  0  0
   -1.2125   -4.7167    0.0000 F   0  0  0  0  0  0  0  0  0  0  0  0
   -4.6708   -2.8167    0.0000 F   0  0  0  0  0  0  0  0  0  0  0  0
   -2.4333   -3.6167    0.0000 F   0  0  0  0  0  0  0  0  0  0  0  0
   -3.8708   -0.5792    0.0000 F   0  0  0  0  0  0  0  0  0  0  0  0
   -5.8125    3.0833    0.0000 F   0  0  0  0  0  0  0  0  0  0  0  0
   -6.6292    0.8625    0.0000 F   0  0  0  0  0  0  0  0  0  0  0  0
   -3.5958    2.2833    0.0000 F   0  0  0  0  0  0  0  0  0  0  0  0
   -3.9708   -2.3000    0.0000 F   0  0  0  0  0  0  0  0  0  0  0  0
   -6.7292   -0.3792    0.0000 F   0  0  0  0  0  0  0  0  0  0  0  0
   -6.3042   -2.7167    0.0000 F   0  0  0  0  0  0  0  0  0  0  0  0
    0.2042    3.3458    0.0000 O   0  0  0  0  0  0  0  0  0  0  0  0
    0.3667    5.0000    0.0000 C   0  0  0  0  0  0  0  0  0  0  0  0
    1.8667    5.7167    0.0000 C   0  0  0  0  0  0  0  0  0  0  0  0
  2  4  1  0  0  0  0
  3  1  1  0  0  0  0
  4  1  1  0  0  0  0
  5  4  2  0  0  0  0
  6  1  1  0  0  0  0
  7  1  1  0  0  0  0
  8  2  1  0  0  0  0
  9  5  1  0  0  0  0
 10  5  1  0  0  0  0
 11  3  1  0  0  0  0
 12  3  1  0  0  0  0
 13  8  2  0  0  0  0
 14  6  1  0  0  0  0
 15  6  1  0  0  0  0
 16  6  1  0  0  0  0
 17  7  1  0  0  0  0
 18  7  1  0  0  0  0
 19  7  1  0  0  0  0
 20 10  1  0  0  0  0
 21 10  1  0  0  0  0
 22 10  1  0  0  0  0
 23  9  1  0  0  0  0
 24  9  1  0  0  0  0
 25  9  1  0  0  0  0
 26  8  1  0  0  0  0
 27 26  1  0  0  0  0
 28 27  1  0  0  0  0
  3  2  1  0  0  0  0
M  END
>  <ID> (5154338)
5154338

>  <Supplier> (5154338)
ChemBridge

>  <clogP> (5154338)
1.390000000000000e+000

>  <RB> (5154338)
0

>  <tPSA> (5154338)
2.954000000000000e+001

>  <Hacc> (5154338)
2

>  <Hdon> (5154338)
0

>  <LogSw> (5154338)
-3.661000000000000e+000

>  <Group> (5154338)
2

$$$$
9036114
  -ISIS-  03310818282D

 20 21  0  0  0  0  0  0  0  0999 V2000
    2.5875    1.8708    0.0000 N   0  0  3  0  0  0  0  0  0  0  0  0
    3.0292    1.2708    0.0000 C   0  0  0  0  0  0  0  0  0  0  0  0
    3.7417    2.2458    0.0000 C   0  0  3  0  0  0  0  0  0  0  0  0
    4.3500    2.6875    0.0000 C   0  0  0  0  0  0  0  0  0  0  0  0
    3.0292    2.4833    0.0000 C   0  0  0  0  0  0  0  0  0  0  0  0
    3.7417    1.4958    0.0000 C   0  0  0  0  0  0  0  0  0  0  0  0
    5.0292    2.3833    0.0000 N   0  0  0  0  0  0  0  0  0  0  0  0
    1.8375    1.8708    0.0000 C   0  0  0  0  0  0  0  0  0  0  0  0
    2.7917    0.5500    0.0000 O   0  0  0  0  0  0  0  0  0  0  0  0
    4.2667    3.4333    0.0000 O   0  0  0  0  0  0  0  0  0  0  0  0
    5.6417    2.8333    0.0000 C   0  0  3  0  0  0  0  0  0  0  0  0
    6.9292    2.9583    0.0000 O   0  0  0  0  0  0  0  0  0  0  0  0
    1.4625    2.5208    0.0000 C   0  0  0  0  0  0  0  0  0  0  0  0
    1.4625    1.2208    0.0000 C   0  0  0  0  0  0  0  0  0  0  0  0
    6.3250    2.5208    0.0000 C   0  0  0  0  0  0  0  0  0  0  0  0
    7.6167    2.6583    0.0000 C   0  0  0  0  0  0  0  0  0  0  0  0
    5.5625    3.5708    0.0000 C   0  0  0  0  0  0  0  0  0  0  0  0
    0.7125    1.2208    0.0000 C   0  0  0  0  0  0  0  0  0  0  0  0
    0.7125    2.5208    0.0000 C   0  0  0  0  0  0  0  0  0  0  0  0
    0.3375    1.8708    0.0000 C   0  0  0  0  0  0  0  0  0  0  0  0
  2  1  1  0  0  0  0
  3  5  1  0  0  0  0
  4  3  1  0  0  0  0
  5  1  1  0  0  0  0
  6  2  1  0  0  0  0
  7  4  1  0  0  0  0
  8  1  1  0  0  0  0
  9  2  2  0  0  0  0
 10  4  2  0  0  0  0
 11  7  1  0  0  0  0
 12 15  1  0  0  0  0
 13  8  2  0  0  0  0
 14  8  1  0  0  0  0
 15 11  1  0  0  0  0
 16 12  1  0  0  0  0
 17 11  1  0  0  0  0
 18 14  2  0  0  0  0
 19 13  1  0  0  0  0
 20 18  1  0  0  0  0
  6  3  1  0  0  0  0
 20 19  2  0  0  0  0
M  END
>  <ID> (9036114)
9036114

>  <Supplier> (9036114)
ChemBridge

>  <clogP> (9036114)
2.196000000000000e+000

>  <RB> (9036114)
4

>  <tPSA> (9036114)
5.863999999999997e+001

>  <Hacc> (9036114)
3

>  <Hdon> (9036114)
1

>  <LogSw> (9036114)
-3.091000000000000e+000

>  <Group> (9036114)
2

>  <Core> (9036114)
124

$$$$
6934605
  -ISIS-  03310818242D

 26 28  0  0  0  0  0  0  0  0999 V2000
    1.7500   -1.0292    0.0000 C   0  0  0  0  0  0  0  0  0  0  0  0
    2.4417   -0.2292    0.0000 N   0  0  3  0  0  0  0  0  0  0  0  0
    1.4125   -0.4542    0.0000 C   0  0  0  0  0  0  0  0  0  0  0  0
    1.8500    0.0333    0.0000 C   0  0  0  0  0  0  0  0  0  0  0  0
    2.3792   -0.8792    0.0000 C   0  0  3  0  0  0  0  0  0  0  0  0
    1.4625   -1.6417    0.0000 C   0  0  0  0  0  0  0  0  0  0  0  0
    0.8000   -1.7125    0.0000 C   0  0  0  0  0  0  0  0  0  0  0  0
    2.9125   -1.3167    0.0000 C   0  0  0  0  0  0  0  0  0  0  0  0
    0.3042   -2.3750    0.0000 O   0  0  0  0  0  0  0  0  0  0  0  0
    0.3167   -1.0375    0.0000 C   0  0  0  0  0  0  0  0  0  0  0  0
   -0.4708   -2.1125    0.0000 C   0  0  0  0  0  0  0  0  0  0  0  0
   -0.4708   -1.2875    0.0000 C   0  0  0  0  0  0  0  0  0  0  0  0
    1.6625    0.6958    0.0000 O   0  0  0  0  0  0  0  0  0  0  0  0
    3.5375   -1.0917    0.0000 C   0  0  0  0  0  0  0  0  0  0  0  0
    1.8625   -2.1792    0.0000 O   0  0  0  0  0  0  0  0  0  0  0  0
    0.7375   -0.4042    0.0000 O   0  0  0  0  0  0  0  0  0  0  0  0
    3.0375    0.1458    0.0000 C   0  0  0  0  0  0  0  0  0  0  0  0
    4.0500   -1.5167    0.0000 C   0  0  0  0  0  0  0  0  0  0  0  0
    4.6750   -1.2917    0.0000 Br  0  0  0  0  0  0  0  0  0  0  0  0
    2.8000   -1.9792    0.0000 C   0  0  0  0  0  0  0  0  0  0  0  0
    3.3000   -2.3792    0.0000 C   0  0  0  0  0  0  0  0  0  0  0  0
    3.6167    0.9708    0.0000 O   0  0  0  0  0  0  0  0  0  0  0  0
   -1.1458   -2.5917    0.0000 C   0  0  0  0  0  0  0  0  0  0  0  0
    3.9375   -2.1667    0.0000 C   0  0  0  0  0  0  0  0  0  0  0  0
    2.9875    0.7958    0.0000 C   0  0  0  0  0  0  0  0  0  0  0  0
    3.7875    1.6083    0.0000 C   0  0  0  0  0  0  0  0  0  0  0  0
  2  5  1  0  0  0  0
  3  1  2  0  0  0  0
  4  3  1  0  0  0  0
  5  1  1  0  0  0  0
  6  1  1  0  0  0  0
  7  6  1  0  0  0  0
  8  5  1  0  0  0  0
  9  7  1  0  0  0  0
 10  7  2  0  0  0  0
 11  9  1  0  0  0  0
 12 10  1  0  0  0  0
 13  4  2  0  0  0  0
 14  8  1  0  0  0  0
 15  6  2  0  0  0  0
 16  3  1  0  0  0  0
 17  2  1  0  0  0  0
 18 14  2  0  0  0  0
 19 18  1  0  0  0  0
 20  8  2  0  0  0  0
 21 20  1  0  0  0  0
 22 25  1  0  0  0  0
 23 11  1  0  0  0  0
 24 21  2  0  0  0  0
 25 17  1  0  0  0  0
 26 22  1  0  0  0  0
  2  4  1  0  0  0  0
 12 11  2  0  0  0  0
 18 24  1  0  0  0  0
M  END
>  <ID> (6934605)
6934605

>  <Supplier> (6934605)
ChemBridge

>  <clogP> (6934605)
3.840000000000000e+000

>  <RB> (6934605)
5

>  <tPSA> (6934605)
7.998000000000000e+001

>  <Hacc> (6934605)
5

>  <Hdon> (6934605)
1

>  <LogSw> (6934605)
-5.543000000000000e+000

>  <Group> (6934605)
2

>  <Core> (6934605)
095

$$$$
9079778
  -ISIS-  03310818292D

 20 21  0  0  0  0  0  0  0  0999 V2000
    4.2875    2.4875    0.0000 S   0  0  3  0  0  0  0  0  0  0  0  0
    4.6625    1.8458    0.0000 C   0  0  0  0  0  0  0  0  0  0  0  0
    5.4125    1.8458    0.0000 C   0  0  0  0  0  0  0  0  0  0  0  0
    3.5625    2.2958    0.0000 N   0  0  0  0  0  0  0  0  0  0  0  0
    4.9667    2.8083    0.0000 O   0  0  0  0  0  0  0  0  0  0  0  0
    4.0292    3.1958    0.0000 O   0  0  0  0  0  0  0  0  0  0  0  0
    5.7875    1.1958    0.0000 C   0  0  0  0  0  0  0  0  0  0  0  0
    3.0292    2.8333    0.0000 C   0  0  0  0  0  0  0  0  0  0  0  0
    2.3042    2.6333    0.0000 C   0  0  0  0  0  0  0  0  0  0  0  0
    1.7792    3.1708    0.0000 C   0  0  0  0  0  0  0  0  0  0  0  0
    5.4125    0.5458    0.0000 F   0  0  0  0  0  0  0  0  0  0  0  0
    5.7875    2.4875    0.0000 C   0  0  0  0  0  0  0  0  0  0  0  0
    6.5375    1.1958    0.0000 C   0  0  0  0  0  0  0  0  0  0  0  0
    2.1125    1.9083    0.0000 C   0  0  0  0  0  0  0  0  0  0  0  0
    1.9667    3.8958    0.0000 C   0  0  0  0  0  0  0  0  0  0  0  0
    1.0542    2.9708    0.0000 C   0  0  0  0  0  0  0  0  0  0  0  0
    6.5375    2.4875    0.0000 C   0  0  0  0  0  0  0  0  0  0  0  0
    6.9125    1.8458    0.0000 C   0  0  0  0  0  0  0  0  0  0  0  0
    1.3875    1.7125    0.0000 C   0  0  0  0  0  0  0  0  0  0  0  0
    0.8542    2.2458    0.0000 C   0  0  0  0  0  0  0  0  0  0  0  0
  2  1  1  0  0  0  0
  3  2  1  0  0  0  0
  4  1  1  0  0  0  0
  5  1  2  0  0  0  0
  6  1  2  0  0  0  0
  7  3  2  0  0  0  0
  8  4  1  0  0  0  0
  9  8  1  0  0  0  0
 10  9  2  0  0  0  0
 11  7  1  0  0  0  0
 12  3  1  0  0  0  0
 13  7  1  0  0  0  0
 14  9  1  0  0  0  0
 15 10  1  0  0  0  0
 16 10  1  0  0  0  0
 17 12  2  0  0  0  0
 18 17  1  0  0  0  0
 19 14  2  0  0  0  0
 20 19  1  0  0  0  0
 13 18  2  0  0  0  0
 20 16  2  0  0  0  0
M  END
>  <ID> (9079778)
9079778

>  <Supplier> (9079778)
ChemBridge

>  <clogP> (9079778)
3.090000000000000e+000

>  <RB> (9079778)
4

>  <tPSA> (9079778)
4.616999999999997e+001

>  <Hacc> (9079778)
3

>  <Hdon> (9079778)
1

>  <LogSw> (9079778)
-3.979000000000000e+000

>  <Group> (9079778)
2

$$$$
6091016
  -ISIS-  03310818232D

 17 17  0  0  0  0  0  0  0  0999 V2000
    3.6917   -2.1667    0.0000 C   0  0  0  0  0  0  0  0  0  0  0  0
    4.3417   -2.5417    0.0000 C   0  0  0  0  0  0  0  0  0  0  0  0
   -0.2083   -1.4167    0.0000 C   0  0  0  0  0  0  0  0  0  0  0  0
    3.0417   -2.5417    0.0000 N   0  0  0  0  0  0  0  0  0  0  0  0
    0.4417   -1.0417    0.0000 N   0  0  0  0  0  0  0  0  0  0  0  0
    3.6917   -1.4167    0.0000 O   0  0  0  0  0  0  0  0  0  0  0  0
    4.9917   -2.1667    0.0000 C   0  0  0  0  0  0  0  0  0  0  0  0
   -0.2083   -2.1667    0.0000 O   0  0  0  0  0  0  0  0  0  0  0  0
    4.9917   -1.4167    0.0000 O   0  0  0  0  0  0  0  0  0  0  0  0
    2.3917   -2.1667    0.0000 C   0  0  0  0  0  0  0  0  0  0  0  0
    1.0917   -1.4167    0.0000 C   0  0  0  0  0  0  0  0  0  0  0  0
    1.7417   -2.5417    0.0000 C   0  0  0  0  0  0  0  0  0  0  0  0
    1.7417   -1.0417    0.0000 C   0  0  0  0  0  0  0  0  0  0  0  0
    2.3917   -1.4167    0.0000 C   0  0  0  0  0  0  0  0  0  0  0  0
    1.0917   -2.1667    0.0000 C   0  0  0  0  0  0  0  0  0  0  0  0
   -0.8583   -1.0417    0.0000 C   0  0  0  0  0  0  0  0  0  0  0  0
    5.6417   -2.5417    0.0000 C   0  0  0  0  0  0  0  0  0  0  0  0
  2  1  1  0  0  0  0
  3  5  1  0  0  0  0
  4  1  1  0  0  0  0
  5 11  1  0  0  0  0
  6  1  2  0  0  0  0
  7  2  1  0  0  0  0
  8  3  2  0  0  0  0
  9  7  2  0  0  0  0
 10  4  1  0  0  0  0
 11 13  1  0  0  0  0
 12 10  2  0  0  0  0
 13 14  2  0  0  0  0
 14 10  1  0  0  0  0
 15 12  1  0  0  0  0
 16  3  1  0  0  0  0
 17  7  1  0  0  0  0
 15 11  2  0  0  0  0
M  END
>  <ID> (6091016)
6091016

>  <Supplier> (6091016)
ChemBridge

>  <clogP> (6091016)
-3.900000000000000e-001

>  <RB> (6091016)
4

>  <tPSA> (6091016)
7.527000000000000e+001

>  <Hacc> (6091016)
3

>  <Hdon> (6091016)
2

>  <LogSw> (6091016)
-1.886000000000000e+000

>  <Group> (6091016)
3

>  <Core> (6091016)
157

$$$$
7497602
  -ISIS-  03310818263D

 25 28  0  0  0  0  0  0  0  0999 V2000
    5.4792   -2.3625   -0.1792 C   0  0  0  0  0  0  0  0  0  0  0  0
    6.2500   -2.0750    0.0000 N   0  0  0  0  0  0  0  0  0  0  0  0
    4.7917   -1.9042   -0.2375 C   0  0  0  0  0  0  0  0  0  0  0  0
    5.5167   -3.1917    0.0000 N   0  0  0  0  0  0  0  0  0  0  0  0
    4.0542   -2.2417   -0.0792 C   0  0  0  0  0  0  0  0  0  0  0  0
    2.0042   -0.8792    0.0000 C   0  0  0  0  0  0  0  0  0  0  0  0
    1.3167   -0.4167    0.0000 N   0  0  3  0  0  0  0  0  0  0  0  0
    6.7542   -2.7250    0.0000 C   0  0  0  0  0  0  0  0  0  0  0  0
    4.8417   -1.1125   -0.4625 C   0  0  0  0  0  0  0  0  0  0  0  0
    6.3000   -3.4042    0.0000 C   0  0  0  0  0  0  0  0  0  0  0  0
    1.9542   -1.7042    0.0000 C   0  0  0  0  0  0  0  0  0  0  0  0
    4.8917   -0.3167   -0.6792 N   0  0  0  0  0  0  0  0  0  0  0  0
    2.7417   -0.5125    0.0000 C   0  0  0  0  0  0  0  0  0  0  0  0
    3.3750   -1.7875   -0.1375 C   0  0  0  0  0  0  0  0  0  0  0  0
    2.6417   -2.1542    0.0000 C   0  0  0  0  0  0  0  0  0  0  0  0
    3.4292   -0.9667    0.0000 C   0  0  0  0  0  0  0  0  0  0  0  0
    1.2792    0.4000    0.0000 C   0  0  0  0  0  0  0  0  0  0  0  0
    0.5417   -0.7042    0.0000 C   0  0  0  0  0  0  0  0  0  0  0  0
    1.2167   -2.0750    0.0000 C   0  0  0  0  0  0  0  0  0  0  0  0
    7.5792   -2.7792    0.0000 C   0  0  0  0  0  0  0  0  0  0  0  0
    6.6625   -4.1417    0.0000 C   0  0  0  0  0  0  0  0  0  0  0  0
    0.4750    0.6208    0.0000 C   0  0  0  0  0  0  0  0  0  0  0  0
    0.0292   -0.0625    0.0000 C   0  0  0  0  0  0  0  0  0  0  0  0
    7.4875   -4.1917    0.0000 C   0  0  0  0  0  0  0  0  0  0  0  0
    7.9417   -3.5167    0.0000 C   0  0  0  0  0  0  0  0  0  0  0  0
  2  1  2  0  0  0  0
  3  1  1  0  0  0  0
  4  1  1  0  0  0  0
  5  3  2  0  0  0  0
  6 13  2  0  0  0  0
  7  6  1  0  0  0  0
  8  2  1  0  0  0  0
  9  3  1  0  0  0  0
 10  4  1  0  0  0  0
 11 15  2  0  0  0  0
 12  9  3  0  0  0  0
 13 16  1  0  0  0  0
 14  5  1  0  0  0  0
 15 14  1  0  0  0  0
 16 14  2  0  0  0  0
 17  7  1  0  0  0  0
 18  7  1  0  0  0  0
 19 11  1  0  0  0  0
 20  8  1  0  0  0  0
 21 10  1  0  0  0  0
 22 17  1  0  0  0  0
 23 18  1  0  0  0  0
 24 21  2  0  0  0  0
 25 20  2  0  0  0  0
 10  8  2  0  0  0  0
 24 25  1  0  0  0  0
 11  6  1  0  0  0  0
 22 23  1  0  0  0  0
M  END
>  <ID> (7497602)
7497602

>  <Supplier> (7497602)
ChemBridge

>  <clogP> (7497602)
2.790000000000000e+000

>  <RB> (7497602)
3

>  <tPSA> (7497602)
5.571000000000002e+001

>  <Hacc> (7497602)
2

>  <Hdon> (7497602)
1

>  <LogSw> (7497602)
-5.651000000000000e+000

>  <Group> (7497602)
1

>  <Core> (7497602)
112

$$$$
6207506
  -ISIS-  03310818232D

 24 25  0  0  0  0  0  0  0  0999 V2000
    6.4542   -4.4542    0.0000 S   0  0  3  0  0  0  0  0  0  0  0  0
    6.4542   -3.6292    0.0000 N   0  0  3  0  0  0  0  0  0  0  0  0
    7.1667   -3.2167    0.0000 C   0  0  0  0  0  0  0  0  0  0  0  0
    7.8792   -3.6292    0.0000 C   0  0  0  0  0  0  0  0  0  0  0  0
    3.5875   -3.6167    0.0000 C   0  0  3  0  0  0  0  0  0  0  0  0
    8.6000   -3.2167    0.0000 N   0  0  3  0  0  0  0  0  0  0  0  0
    5.7417   -3.2167    0.0000 C   0  0  0  0  0  0  0  0  0  0  0  0
    4.3042   -3.2167    0.0000 C   0  0  0  0  0  0  0  0  0  0  0  0
    5.0292   -3.6417    0.0000 C   0  0  0  0  0  0  0  0  0  0  0  0
    7.0417   -5.0375    0.0000 O   0  0  0  0  0  0  0  0  0  0  0  0
    7.2792   -4.4542    0.0000 O   0  0  0  0  0  0  0  0  0  0  0  0
    7.8792   -4.4542    0.0000 O   0  0  0  0  0  0  0  0  0  0  0  0
    3.5792   -4.4417    0.0000 F   0  0  0  0  0  0  0  0  0  0  0  0
    2.8667   -4.0292    0.0000 F   0  0  0  0  0  0  0  0  0  0  0  0
    2.8792   -3.2042    0.0000 F   0  0  0  0  0  0  0  0  0  0  0  0
   10.0625   -2.3917    0.0000 O   0  0  0  0  0  0  0  0  0  0  0  0
    5.7417   -4.8625    0.0000 C   0  0  0  0  0  0  0  0  0  0  0  0
    9.3167   -3.6417    0.0000 C   0  0  0  0  0  0  0  0  0  0  0  0
    8.6042   -2.3750    0.0000 C   0  0  0  0  0  0  0  0  0  0  0  0
    5.7417   -2.3875    0.0000 C   0  0  0  0  0  0  0  0  0  0  0  0
    4.3042   -2.3875    0.0000 C   0  0  0  0  0  0  0  0  0  0  0  0
    5.0292   -1.9750    0.0000 C   0  0  0  0  0  0  0  0  0  0  0  0
    9.3375   -1.9667    0.0000 C   0  0  0  0  0  0  0  0  0  0  0  0
   10.0417   -3.2292    0.0000 C   0  0  0  0  0  0  0  0  0  0  0  0
  2  1  1  0  0  0  0
  3  2  1  0  0  0  0
  4  3  1  0  0  0  0
  5  8  1  0  0  0  0
  6  4  1  0  0  0  0
  7  2  1  0  0  0  0
  8  9  2  0  0  0  0
  9  7  1  0  0  0  0
 10  1  2  0  0  0  0
 11  1  2  0  0  0  0
 12  4  2  0  0  0  0
 13  5  1  0  0  0  0
 14  5  1  0  0  0  0
 15  5  1  0  0  0  0
 16 23  1  0  0  0  0
 17  1  1  0  0  0  0
 18  6  1  0  0  0  0
 19  6  1  0  0  0  0
 20  7  2  0  0  0  0
 21 22  2  0  0  0  0
 22 20  1  0  0  0  0
 23 19  1  0  0  0  0
 24 18  1  0  0  0  0
 21  8  1  0  0  0  0
 24 16  1  0  0  0  0
M  END
>  <ID> (6207506)
6207506

>  <Supplier> (6207506)
ChemBridge

>  <clogP> (6207506)
2.080000000000000e+000

>  <RB> (6207506)
3

>  <tPSA> (6207506)
6.691999999999999e+001

>  <Hacc> (6207506)
4

>  <Hdon> (6207506)
0

>  <LogSw> (6207506)
-3.647000000000000e+000

>  <Group> (6207506)
3

>  <Core> (6207506)
084

$$$$
5187349
  -ISIS-  03310818212D

 23 24  0  0  0  0  0  0  0  0999 V2000
   -1.1500   -0.7500    0.0000 C   0  0  0  0  0  0  0  0  0  0  0  0
    0.0500   -0.7292    0.0000 N   0  0  0  0  0  0  0  0  0  0  0  0
   -0.6125   -1.0792    0.0000 N   0  0  0  0  0  0  0  0  0  0  0  0
   -1.1500   -0.0917    0.0000 O   0  0  0  0  0  0  0  0  0  0  0  0
   -2.3333   -0.7667    0.0000 S   0  0  0  0  0  0  0  0  0  0  0  0
    0.6042   -1.0792    0.0000 C   0  0  0  0  0  0  0  0  0  0  0  0
    1.1875   -0.7667    0.0000 C   0  0  0  0  0  0  0  0  0  0  0  0
   -4.0458   -1.1042    0.0000 C   0  0  0  0  0  0  0  0  0  0  0  0
    2.3667   -0.1042    0.0000 C   0  0  0  0  0  0  0  0  0  0  0  0
   -4.5958   -0.7667    0.0000 C   0  0  0  0  0  0  0  0  0  0  0  0
   -1.7458   -1.1042    0.0000 C   0  0  0  0  0  0  0  0  0  0  0  0
   -5.1833   -1.1042    0.0000 Br  0  0  0  0  0  0  0  0  0  0  0  0
   -3.4625   -0.7667    0.0000 C   0  0  0  0  0  0  0  0  0  0  0  0
    1.7667   -1.1042    0.0000 C   0  0  0  0  0  0  0  0  0  0  0  0
    1.1875   -0.0917    0.0000 C   0  0  0  0  0  0  0  0  0  0  0  0
    2.3667   -0.7792    0.0000 C   0  0  0  0  0  0  0  0  0  0  0  0
    1.7667    0.2458    0.0000 C   0  0  0  0  0  0  0  0  0  0  0  0
    2.9500    0.2125    0.0000 O   0  0  0  0  0  0  0  0  0  0  0  0
   -2.8833   -1.1042    0.0000 C   0  0  0  0  0  0  0  0  0  0  0  0
   -4.0458    0.2458    0.0000 C   0  0  0  0  0  0  0  0  0  0  0  0
   -4.5958   -0.0917    0.0000 C   0  0  0  0  0  0  0  0  0  0  0  0
   -3.4625   -0.0917    0.0000 C   0  0  0  0  0  0  0  0  0  0  0  0
    3.5000   -0.1292    0.0000 C   0  0  0  0  0  0  0  0  0  0  0  0
  2  3  1  0  0  0  0
  3  1  1  0  0  0  0
  4  1  2  0  0  0  0
  5 11  1  0  0  0  0
  6  2  2  0  0  0  0
  7  6  1  0  0  0  0
  8 13  1  0  0  0  0
  9 17  1  0  0  0  0
 10  8  2  0  0  0  0
 11  1  1  0  0  0  0
 12 10  1  0  0  0  0
 13 19  1  0  0  0  0
 14  7  2  0  0  0  0
 15  7  1  0  0  0  0
 16 14  1  0  0  0  0
 17 15  2  0  0  0  0
 18  9  1  0  0  0  0
 19  5  1  0  0  0  0
 20 22  1  0  0  0  0
 21 20  2  0  0  0  0
 22 13  2  0  0  0  0
 23 18  1  0  0  0  0
 16  9  2  0  0  0  0
 10 21  1  0  0  0  0
M  END
>  <ID> (5187349)
5187349

>  <Supplier> (5187349)
ChemBridge

>  <clogP> (5187349)
4.180000000000000e+000

>  <RB> (5187349)
6

>  <tPSA> (5187349)
5.069000000000000e+001

>  <Hacc> (5187349)
3

>  <Hdon> (5187349)
1

>  <LogSw> (5187349)
-5.637000000000000e+000

>  <Group> (5187349)
1

>  <Core> (5187349)
431

$$$$
5187348
  -ISIS-  03310818212D

 29 31  0  0  0  0  0  0  0  0999 V2000
   -1.1500   -0.7500    0.0000 C   0  0  0  0  0  0  0  0  0  0  0  0
    0.0500   -0.7292    0.0000 N   0  0  0  0  0  0  0  0  0  0  0  0
   -0.6125   -1.0792    0.0000 N   0  0  0  0  0  0  0  0  0  0  0  0
   -1.1500   -0.0917    0.0000 O   0  0  0  0  0  0  0  0  0  0  0  0
   -2.3333   -0.7667    0.0000 S   0  0  0  0  0  0  0  0  0  0  0  0
    0.6042   -1.0792    0.0000 C   0  0  0  0  0  0  0  0  0  0  0  0
    2.9500    0.2125    0.0000 O   0  0  0  0  0  0  0  0  0  0  0  0
    2.3667   -0.1042    0.0000 C   0  0  0  0  0  0  0  0  0  0  0  0
    1.1875   -0.7667    0.0000 C   0  0  0  0  0  0  0  0  0  0  0  0
   -4.0458   -1.1042    0.0000 C   0  0  0  0  0  0  0  0  0  0  0  0
   -4.5958   -0.7667    0.0000 C   0  0  0  0  0  0  0  0  0  0  0  0
   -1.7458   -1.1042    0.0000 C   0  0  0  0  0  0  0  0  0  0  0  0
    3.5000   -0.1292    0.0000 C   0  0  0  0  0  0  0  0  0  0  0  0
   -5.1833   -1.1042    0.0000 Br  0  0  0  0  0  0  0  0  0  0  0  0
   -3.4625   -0.7667    0.0000 C   0  0  0  0  0  0  0  0  0  0  0  0
    2.3667   -0.7792    0.0000 C   0  0  0  0  0  0  0  0  0  0  0  0
    1.7667    0.2458    0.0000 C   0  0  0  0  0  0  0  0  0  0  0  0
    1.7667   -1.1042    0.0000 C   0  0  0  0  0  0  0  0  0  0  0  0
    1.1875   -0.0917    0.0000 C   0  0  0  0  0  0  0  0  0  0  0  0
    4.0792    0.1708    0.0000 C   0  0  0  0  0  0  0  0  0  0  0  0
   -2.8833   -1.1042    0.0000 C   0  0  0  0  0  0  0  0  0  0  0  0
   -4.0458    0.2458    0.0000 C   0  0  0  0  0  0  0  0  0  0  0  0
   -4.5958   -0.0917    0.0000 C   0  0  0  0  0  0  0  0  0  0  0  0
   -3.4625   -0.0917    0.0000 C   0  0  0  0  0  0  0  0  0  0  0  0
    4.0792    0.8208    0.0000 C   0  0  0  0  0  0  0  0  0  0  0  0
    4.6542   -0.1542    0.0000 C   0  0  0  0  0  0  0  0  0  0  0  0
    5.2375    0.1625    0.0000 C   0  0  0  0  0  0  0  0  0  0  0  0
    4.6542    1.1625    0.0000 C   0  0  0  0  0  0  0  0  0  0  0  0
    5.2375    0.8333    0.0000 C   0  0  0  0  0  0  0  0  0  0  0  0
  2  3  1  0  0  0  0
  3  1  1  0  0  0  0
  4  1  2  0  0  0  0
  5 12  1  0  0  0  0
  6  2  2  0  0  0  0
  7  8  1  0  0  0  0
  8 17  1  0  0  0  0
  9  6  1  0  0  0  0
 10 15  1  0  0  0  0
 11 10  2  0  0  0  0
 12  1  1  0  0  0  0
 13  7  1  0  0  0  0
 14 11  1  0  0  0  0
 15 21  1  0  0  0  0
 16 18  1  0  0  0  0
 17 19  2  0  0  0  0
 18  9  2  0  0  0  0
 19  9  1  0  0  0  0
 20 13  1  0  0  0  0
 21  5  1  0  0  0  0
 22 24  1  0  0  0  0
 23 22  2  0  0  0  0
 24 15  2  0  0  0  0
 25 20  1  0  0  0  0
 26 20  2  0  0  0  0
 27 26  1  0  0  0  0
 28 25  2  0  0  0  0
 29 27  2  0  0  0  0
  8 16  2  0  0  0  0
 23 11  1  0  0  0  0
 28 29  1  0  0  0  0
M  END
>  <ID> (5187348)
5187348

>  <Supplier> (5187348)
ChemBridge

>  <clogP> (5187348)
5.940000000000000e+000

>  <RB> (5187348)
9

>  <tPSA> (5187348)
5.069000000000000e+001

>  <Hacc> (5187348)
3

>  <Hdon> (5187348)
1

>  <LogSw> (5187348)
-7.693999999999998e+000

>  <Group> (5187348)
2

>  <Core> (5187348)
431

$$$$
5543242
  -ISIS-  03310818222D

 33 35  0  0  0  0  0  0  0  0999 V2000
   -1.8958    0.9125    0.0000 N   0  3  0  0  0  0  0  0  0  0  0  0
   -1.2000    1.2333    0.0000 C   0  0  0  0  0  0  0  0  0  0  0  0
   -3.9125   -0.2792    0.0000 N   0  0  0  0  0  0  0  0  0  0  0  0
   -1.7833    0.1208    0.0000 C   0  0  0  0  0  0  0  0  0  0  0  0
   -3.2458    0.9000    0.0000 C   0  0  0  0  0  0  0  0  0  0  0  0
   -4.5958    0.9000    0.0000 N   0  3  0  0  0  0  0  0  0  0  0  0
   -3.2458    0.1125    0.0000 C   0  0  0  0  0  0  0  0  0  0  0  0
   -1.0125    0.0000    0.0000 S   0  0  0  0  0  0  0  0  0  0  0  0
   -2.5625    1.2958    0.0000 C   0  0  0  0  0  0  0  0  0  0  0  0
    3.1167   -0.5375    0.0000 C   0  0  3  0  0  0  0  0  0  0  0  0
   -0.6625    0.7125    0.0000 C   0  0  0  0  0  0  0  0  0  0  0  0
   -4.5958    0.1125    0.0000 C   0  0  0  0  0  0  0  0  0  0  0  0
   -3.9125    1.2958    0.0000 C   0  0  0  0  0  0  0  0  0  0  0  0
    1.8542   -0.0917    0.0000 C   0  0  0  0  0  0  0  0  0  0  0  0
    4.7000    0.0625    0.0000 C   0  0  3  0  0  0  0  0  0  0  0  0
    3.3542   -1.2542    0.0000 C   0  0  3  0  0  0  0  0  0  0  0  0
    4.4875   -1.3875    0.0000 C   0  0  3  0  0  0  0  0  0  0  0  0
    2.6042    0.0500    0.0000 C   0  0  0  0  0  0  0  0  0  0  0  0
    3.7292   -1.3542    0.0000 C   0  0  0  0  0  0  0  0  0  0  0  0
    2.3167   -1.0292    0.0000 C   0  0  0  0  0  0  0  0  0  0  0  0
    3.8167    0.1125    0.0000 C   0  0  0  0  0  0  0  0  0  0  0  0
   -0.8000    1.6125    0.0000 Cl  0  5  0  0  0  0  0  0  0  0  0  0
    1.8792    1.7125    0.0000 Cl  0  5  0  0  0  0  0  0  0  0  0  0
    1.6167   -0.8292    0.0000 O   0  0  0  0  0  0  0  0  0  0  0  0
    5.0000   -0.9292    0.0000 C   0  0  0  0  0  0  0  0  0  0  0  0
    3.3542   -1.8542    0.0000 C   0  0  0  0  0  0  0  0  0  0  0  0
    4.3792   -0.8542    0.0000 C   0  0  0  0  0  0  0  0  0  0  0  0
   -2.5625   -0.2792    0.0000 N   0  0  0  0  0  0  0  0  0  0  0  0
    0.0875    0.8708    0.0000 C   0  0  0  0  0  0  0  0  0  0  0  0
    1.3500    0.4625    0.0000 O   0  0  0  0  0  0  0  0  0  0  0  0
    0.6042    0.3000    0.0000 C   0  0  0  0  0  0  0  0  0  0  0  0
   -1.0958    1.9958    0.0000 C   0  0  0  0  0  0  0  0  0  0  0  0
   -5.2708   -0.2792    0.0000 C   0  0  0  0  0  0  0  0  0  0  0  0
  2  1  1  0  0  0  0
  3  7  1  0  0  0  0
  4  1  2  0  0  0  0
  5  9  1  0  0  0  0
  6 13  2  0  0  0  0
  7  5  2  0  0  0  0
  8  4  1  0  0  0  0
  9  1  1  0  0  0  0
 10 18  1  0  0  0  0
 11  2  2  0  0  0  0
 12  6  1  0  0  0  0
 13  5  1  0  0  0  0
 14 30  1  0  0  0  0
 15 21  1  0  0  0  0
 16 20  1  0  0  0  0
 17 19  1  0  0  0  0
 18 14  1  0  0  0  0
 19 10  1  0  0  0  0
 20 10  1  0  0  0  0
 21 10  1  0  0  0  0
 24 14  2  0  0  0  0
 25 15  1  0  0  0  0
 26 16  1  0  0  0  0
 27 15  1  0  0  0  0
 28  7  1  0  0  0  0
 29 11  1  0  0  0  0
 30 31  1  0  0  0  0
 31 29  1  0  0  0  0
 32  2  1  0  0  0  0
 33 12  1  0  0  0  0
  8 11  1  0  0  0  0
  3 12  2  0  0  0  0
 27 16  1  0  0  0  0
 25 17  1  0  0  0  0
 26 17  1  0  0  0  0
M  CHG  4   1   1   6   1  22  -1  23  -1
M  END
>  <ID> (5543242)
5543242

>  <Supplier> (5543242)
ChemBridge

>  <clogP> (5543242)
5.130000000000000e+000

>  <RB> (5543242)
8

>  <tPSA> (5543242)
8.323000000000000e+001

>  <Hacc> (5543242)
5

>  <Hdon> (5543242)
1

>  <LogSw> (5543242)
-6.800000000000000e+000

>  <Group> (5543242)
3

$$$$
5636749
  -ISIS-  03310818222D

 22 25  0  0  0  0  0  0  0  0999 V2000
    3.5667   -2.7167    0.0000 N   0  0  3  0  0  0  0  0  0  0  0  0
    3.2875   -3.4375    0.0000 C   0  0  0  0  0  0  0  0  0  0  0  0
    2.8000   -2.4042    0.0000 C   0  0  0  0  0  0  0  0  0  0  0  0
    2.1542   -2.7875    0.0000 C   0  0  3  0  0  0  0  0  0  0  0  0
    2.5375   -3.4375    0.0000 C   0  0  3  0  0  0  0  0  0  0  0  0
    1.6500   -1.5292    0.0000 C   0  0  0  0  0  0  0  0  0  0  0  0
    1.5042   -2.3500    0.0000 C   0  0  3  0  0  0  0  0  0  0  0  0
    1.7500   -3.0542    0.0000 C   0  0  3  0  0  0  0  0  0  0  0  0
    0.7167   -2.8292    0.0000 C   0  0  0  0  0  0  0  0  0  0  0  0
    1.0292   -3.4375    0.0000 C   0  0  0  0  0  0  0  0  0  0  0  0
    4.3167   -2.7167    0.0000 C   0  0  0  0  0  0  0  0  0  0  0  0
    1.6500   -0.7792    0.0000 C   0  0  0  0  0  0  0  0  0  0  0  0
    3.8167   -3.9667    0.0000 O   0  0  0  0  0  0  0  0  0  0  0  0
    2.8000   -1.6542    0.0000 O   0  0  0  0  0  0  0  0  0  0  0  0
    4.8500   -2.1875    0.0000 C   0  0  0  0  0  0  0  0  0  0  0  0
    1.1042   -0.2500    0.0000 C   0  0  0  0  0  0  0  0  0  0  0  0
    2.1667   -0.2500    0.0000 C   0  0  0  0  0  0  0  0  0  0  0  0
    5.5000   -2.5542    0.0000 C   0  0  0  0  0  0  0  0  0  0  0  0
    4.8500   -1.4292    0.0000 C   0  0  0  0  0  0  0  0  0  0  0  0
    5.5000   -1.0500    0.0000 C   0  0  0  0  0  0  0  0  0  0  0  0
    6.1500   -2.1792    0.0000 C   0  0  0  0  0  0  0  0  0  0  0  0
    6.1500   -1.4292    0.0000 C   0  0  0  0  0  0  0  0  0  0  0  0
  2  1  1  0  0  0  0
  3  1  1  0  0  0  0
  4  3  1  0  0  0  0
  5  2  1  0  0  0  0
  6  7  1  0  0  0  0
  7  4  1  0  0  0  0
  8  5  1  0  0  0  0
  9  7  1  0  0  0  0
 10  8  1  0  0  0  0
 11  1  1  0  0  0  0
 12  6  2  0  0  0  0
 13  2  2  0  0  0  0
 14  3  2  0  0  0  0
 15 11  1  0  0  0  0
 16 12  1  0  0  0  0
 17 12  1  0  0  0  0
 18 15  1  0  0  0  0
 19 15  2  0  0  0  0
 20 19  1  0  0  0  0
 21 18  2  0  0  0  0
 22 20  2  0  0  0  0
  5  4  1  0  0  0  0
  8  6  1  0  0  0  0
  9 10  2  0  0  0  0
 21 22  1  0  0  0  0
M  END
>  <ID> (5636749)
5636749

>  <Supplier> (5636749)
ChemBridge

>  <clogP> (5636749)
2.480000000000000e+000

>  <RB> (5636749)
2

>  <tPSA> (5636749)
3.738000000000000e+001

>  <Hacc> (5636749)
2

>  <Hdon> (5636749)
0

>  <LogSw> (5636749)
-3.458000000000000e+000

>  <Group> (5636749)
3

>  <Core> (5636749)
311

$$$$
7949707
  -ISIS-  03310818272D

 27 29  0  0  0  0  0  0  0  0999 V2000
    7.4792    1.7000    0.0000 C   0  0  0  0  0  0  0  0  0  0  0  0
    7.1042    1.0500    0.0000 N   0  0  0  0  0  0  0  0  0  0  0  0
    8.2292    1.7000    0.0000 C   0  0  0  0  0  0  0  0  0  0  0  0
    6.3542    1.0500    0.0000 C   0  0  0  0  0  0  0  0  0  0  0  0
    2.9792    0.4083    0.0000 N   0  0  3  0  0  0  0  0  0  0  0  0
    8.6042    1.0500    0.0000 C   0  0  0  0  0  0  0  0  0  0  0  0
    8.6042    2.3500    0.0000 C   0  0  0  0  0  0  0  0  0  0  0  0
    5.9792    0.4083    0.0000 N   0  0  0  0  0  0  0  0  0  0  0  0
    3.7292    0.4083    0.0000 C   0  0  0  0  0  0  0  0  0  0  0  0
    5.9792    1.7000    0.0000 S   0  0  0  0  0  0  0  0  0  0  0  0
    7.1042    2.3500    0.0000 O   0  0  0  0  0  0  0  0  0  0  0  0
    9.3542    1.0500    0.0000 C   0  0  0  0  0  0  0  0  0  0  0  0
    2.6042    1.0500    0.0000 C   0  0  0  0  0  0  0  0  0  0  0  0
    2.6042   -0.2417    0.0000 C   0  0  0  0  0  0  0  0  0  0  0  0
    4.1042    1.0500    0.0000 C   0  0  0  0  0  0  0  0  0  0  0  0
    4.1042   -0.2417    0.0000 C   0  0  0  0  0  0  0  0  0  0  0  0
    5.2292    0.4083    0.0000 C   0  0  0  0  0  0  0  0  0  0  0  0
    8.2292    0.4083    0.0000 Cl  0  0  0  0  0  0  0  0  0  0  0  0
    9.3542    2.3500    0.0000 C   0  0  0  0  0  0  0  0  0  0  0  0
    9.7292    1.7000    0.0000 C   0  0  0  0  0  0  0  0  0  0  0  0
    4.8542   -0.2417    0.0000 C   0  0  0  0  0  0  0  0  0  0  0  0
    4.8542    1.0500    0.0000 C   0  0  0  0  0  0  0  0  0  0  0  0
    1.8542    1.0500    0.0000 C   0  0  0  0  0  0  0  0  0  0  0  0
    1.8542   -0.2417    0.0000 C   0  0  0  0  0  0  0  0  0  0  0  0
    1.4792    0.4083    0.0000 C   0  0  3  0  0  0  0  0  0  0  0  0
   10.4792    1.7000    0.0000 C   0  0  0  0  0  0  0  0  0  0  0  0
    0.7292    0.4083    0.0000 C   0  0  0  0  0  0  0  0  0  0  0  0
  2  1  1  0  0  0  0
  3  1  1  0  0  0  0
  4  2  1  0  0  0  0
  5  9  1  0  0  0  0
  6  3  1  0  0  0  0
  7  3  2  0  0  0  0
  8  4  1  0  0  0  0
  9 15  1  0  0  0  0
 10  4  2  0  0  0  0
 11  1  2  0  0  0  0
 12  6  2  0  0  0  0
 13  5  1  0  0  0  0
 14  5  1  0  0  0  0
 15 22  2  0  0  0  0
 16 21  1  0  0  0  0
 17  8  1  0  0  0  0
 18  6  1  0  0  0  0
 19  7  1  0  0  0  0
 20 19  2  0  0  0  0
 21 17  2  0  0  0  0
 22 17  1  0  0  0  0
 23 13  1  0  0  0  0
 24 14  1  0  0  0  0
 25 24  1  0  0  0  0
 26 20  1  0  0  0  0
 27 25  1  0  0  0  0
 20 12  1  0  0  0  0
  9 16  2  0  0  0  0
 23 25  1  0  0  0  0
M  END
>  <ID> (7949707)
7949707

>  <Supplier> (7949707)
ChemBridge

>  <clogP> (7949707)
5.021000000000000e+000

>  <RB> (7949707)
3

>  <tPSA> (7949707)
4.437000000000001e+001

>  <Hacc> (7949707)
1

>  <Hdon> (7949707)
2

>  <LogSw> (7949707)
-6.418000000000000e+000

>  <Group> (7949707)
1

>  <Core> (7949707)
071

$$$$
5636744
  -ISIS-  03310818222D

 23 24  0  0  0  0  0  0  0  0999 V2000
    0.7792    1.6833    0.0000 C   0  0  0  0  0  0  0  0  0  0  0  0
    1.1500    1.3500    0.0000 N   0  3  0  0  0  0  0  0  0  0  0  0
    0.3875    3.2208    0.0000 N   0  3  0  0  0  0  0  0  0  0  0  0
    0.8875    2.3833    0.0000 C   0  0  0  0  0  0  0  0  0  0  0  0
    0.3375    2.8208    0.0000 C   0  0  0  0  0  0  0  0  0  0  0  0
   -2.6958    0.9000    0.0000 C   0  0  0  0  0  0  0  0  0  0  0  0
   -1.9333    0.8625    0.0000 C   0  0  0  0  0  0  0  0  0  0  0  0
    0.1292    1.4333    0.0000 C   0  0  0  0  0  0  0  0  0  0  0  0
    1.1500    0.8625    0.0000 O   0  5  0  0  0  0  0  0  0  0  0  0
    0.8792    3.4625    0.0000 O   0  5  0  0  0  0  0  0  0  0  0  0
    1.7292    1.5458    0.0000 O   0  0  0  0  0  0  0  0  0  0  0  0
    0.0042    3.5500    0.0000 O   0  0  0  0  0  0  0  0  0  0  0  0
   -0.3125    2.5708    0.0000 C   0  0  0  0  0  0  0  0  0  0  0  0
   -0.4208    1.8625    0.0000 C   0  0  0  0  0  0  0  0  0  0  0  0
   -3.3708    0.9500    0.0000 C   0  0  0  0  0  0  0  0  0  0  0  0
    0.0292    0.7458    0.0000 O   0  0  0  0  0  0  0  0  0  0  0  0
   -1.2208    0.8833    0.0000 C   0  0  0  0  0  0  0  0  0  0  0  0
   -0.8458    0.4125    0.0000 C   0  0  0  0  0  0  0  0  0  0  0  0
   -3.7000    1.5333    0.0000 C   0  0  0  0  0  0  0  0  0  0  0  0
   -3.7458    0.3625    0.0000 C   0  0  0  0  0  0  0  0  0  0  0  0
   -4.4125    0.3958    0.0000 C   0  0  0  0  0  0  0  0  0  0  0  0
   -4.3625    1.5625    0.0000 C   0  0  0  0  0  0  0  0  0  0  0  0
   -4.7333    0.9625    0.0000 C   0  0  0  0  0  0  0  0  0  0  0  0
  2  1  1  0  0  0  0
  3  5  1  0  0  0  0
  4  1  2  0  0  0  0
  5  4  1  0  0  0  0
  6  7  3  0  0  0  0
  7 17  1  0  0  0  0
  8  1  1  0  0  0  0
  9  2  1  0  0  0  0
 10  3  1  0  0  0  0
 11  2  2  0  0  0  0
 12  3  2  0  0  0  0
 13 14  1  0  0  0  0
 14  8  2  0  0  0  0
 15  6  1  0  0  0  0
 16  8  1  0  0  0  0
 17 18  1  0  0  0  0
 18 16  1  0  0  0  0
 19 15  1  0  0  0  0
 20 15  2  0  0  0  0
 21 20  1  0  0  0  0
 22 19  2  0  0  0  0
 23 21  2  0  0  0  0
 13  5  2  0  0  0  0
 22 23  1  0  0  0  0
M  CHG  4   2   1   3   1   9  -1  10  -1
M  END
>  <ID> (5636744)
5636744

>  <Supplier> (5636744)
ChemBridge

>  <clogP> (5636744)
3.900000000000000e+000

>  <RB> (5636744)
5

>  <tPSA> (5636744)
9.551000000000002e+001

>  <Hacc> (5636744)
5

>  <Hdon> (5636744)
0

>  <LogSw> (5636744)
-5.198000000000000e+000

>  <Group> (5636744)
1

$$$$
5311202
  -ISIS-  03310818212D

 29 31  0  0  0  0  0  0  0  0999 V2000
   -4.7458   -1.4792    0.0000 N   0  3  0  0  0  0  0  0  0  0  0  0
   -4.7458   -0.6000    0.0000 C   0  0  0  0  0  0  0  0  0  0  0  0
   -3.2208    1.1833    0.0000 C   0  0  0  0  0  0  0  0  0  0  0  0
    1.3542    2.0625    0.0000 C   0  0  0  0  0  0  0  0  0  0  0  0
   -3.9833   -0.1542    0.0000 C   0  0  0  0  0  0  0  0  0  0  0  0
   -3.9833    0.7208    0.0000 C   0  0  0  0  0  0  0  0  0  0  0  0
    0.6000    2.5000    0.0000 N   0  0  0  0  0  0  0  0  0  0  0  0
   -2.4625    0.7458    0.0000 N   0  0  0  0  0  0  0  0  0  0  0  0
    2.1167    2.5000    0.0000 C   0  0  0  0  0  0  0  0  0  0  0  0
   -5.5000   -1.9167    0.0000 O   0  5  0  0  0  0  0  0  0  0  0  0
   -3.9833   -1.9167    0.0000 O   0  0  0  0  0  0  0  0  0  0  0  0
   -5.5000   -0.1542    0.0000 C   0  0  0  0  0  0  0  0  0  0  0  0
   -3.2208    2.0625    0.0000 O   0  0  0  0  0  0  0  0  0  0  0  0
    1.3542    1.1833    0.0000 O   0  0  0  0  0  0  0  0  0  0  0  0
    2.1167    3.3833    0.0000 C   0  0  0  0  0  0  0  0  0  0  0  0
   -4.7458    1.1625    0.0000 C   0  0  0  0  0  0  0  0  0  0  0  0
   -5.5000    0.7208    0.0000 C   0  0  0  0  0  0  0  0  0  0  0  0
   -0.1833    2.0625    0.0000 C   0  0  0  0  0  0  0  0  0  0  0  0
   -1.7000    1.1833    0.0000 C   0  0  0  0  0  0  0  0  0  0  0  0
    2.8792    3.8208    0.0000 C   0  0  0  0  0  0  0  0  0  0  0  0
   -0.9458    2.5000    0.0000 C   0  0  0  0  0  0  0  0  0  0  0  0
   -0.9458    0.7458    0.0000 C   0  0  0  0  0  0  0  0  0  0  0  0
   -0.1833    1.1833    0.0000 C   0  0  0  0  0  0  0  0  0  0  0  0
   -1.7000    2.0625    0.0000 C   0  0  0  0  0  0  0  0  0  0  0  0
    2.8792    2.0625    0.0000 C   0  0  0  0  0  0  0  0  0  0  0  0
    3.6375    2.5000    0.0000 C   0  0  0  0  0  0  0  0  0  0  0  0
   -6.2792   -0.6167    0.0000 C   0  0  0  0  0  0  0  0  0  0  0  0
    3.6375    3.3833    0.0000 C   0  0  0  0  0  0  0  0  0  0  0  0
    2.8792    4.7000    0.0000 C   0  0  0  0  0  0  0  0  0  0  0  0
  2  1  1  0  0  0  0
  3  6  1  0  0  0  0
  4  7  1  0  0  0  0
  5  2  2  0  0  0  0
  6  5  1  0  0  0  0
  7 18  1  0  0  0  0
  8  3  1  0  0  0  0
  9  4  1  0  0  0  0
 10  1  1  0  0  0  0
 11  1  2  0  0  0  0
 12  2  1  0  0  0  0
 13  3  2  0  0  0  0
 14  4  2  0  0  0  0
 15  9  1  0  0  0  0
 16 17  1  0  0  0  0
 17 12  2  0  0  0  0
 18 21  1  0  0  0  0
 19  8  1  0  0  0  0
 20 15  2  0  0  0  0
 21 24  2  0  0  0  0
 22 19  2  0  0  0  0
 23 22  1  0  0  0  0
 24 19  1  0  0  0  0
 25  9  2  0  0  0  0
 26 25  1  0  0  0  0
 27 12  1  0  0  0  0
 28 26  2  0  0  0  0
 29 20  1  0  0  0  0
  6 16  2  0  0  0  0
 23 18  2  0  0  0  0
 20 28  1  0  0  0  0
M  CHG  2   1   1  10  -1
M  END
>  <ID> (5311202)
5311202

>  <Supplier> (5311202)
ChemBridge

>  <clogP> (5311202)
4.250000000000000e+000

>  <RB> (5311202)
4

>  <tPSA> (5311202)
1.013400000000000e+002

>  <Hacc> (5311202)
4

>  <Hdon> (5311202)
2

>  <LogSw> (5311202)
-6.058000000000000e+000

>  <Group> (5311202)
1

>  <Core> (5311202)
157

$$$$
5187344
  -ISIS-  03310818212D

 23 24  0  0  0  0  0  0  0  0999 V2000
   -0.2833   -0.3167    0.0000 C   0  0  0  0  0  0  0  0  0  0  0  0
    1.1792   -0.2875    0.0000 N   0  0  0  0  0  0  0  0  0  0  0  0
    2.5542   -0.3375    0.0000 C   0  0  0  0  0  0  0  0  0  0  0  0
    0.3792   -0.7167    0.0000 N   0  0  0  0  0  0  0  0  0  0  0  0
   -0.2833    0.4708    0.0000 O   0  0  0  0  0  0  0  0  0  0  0  0
    2.5542    0.4708    0.0000 C   0  0  0  0  0  0  0  0  0  0  0  0
    1.8542   -0.7167    0.0000 C   0  0  0  0  0  0  0  0  0  0  0  0
   -1.7125   -0.3375    0.0000 S   0  0  0  0  0  0  0  0  0  0  0  0
   -3.7958   -0.7500    0.0000 C   0  0  0  0  0  0  0  0  0  0  0  0
   -4.4708   -0.3375    0.0000 C   0  0  0  0  0  0  0  0  0  0  0  0
   -1.0000   -0.7500    0.0000 C   0  0  0  0  0  0  0  0  0  0  0  0
   -5.1708   -0.7500    0.0000 Br  0  0  0  0  0  0  0  0  0  0  0  0
   -3.0958   -0.3375    0.0000 C   0  0  0  0  0  0  0  0  0  0  0  0
    1.8542    0.8625    0.0000 O   0  0  0  0  0  0  0  0  0  0  0  0
   -2.3833   -0.7500    0.0000 C   0  0  0  0  0  0  0  0  0  0  0  0
   -3.7958    0.8833    0.0000 C   0  0  0  0  0  0  0  0  0  0  0  0
    3.2667   -0.7500    0.0000 C   0  0  0  0  0  0  0  0  0  0  0  0
    3.2667    0.8833    0.0000 C   0  0  0  0  0  0  0  0  0  0  0  0
   -4.4708    0.4708    0.0000 C   0  0  0  0  0  0  0  0  0  0  0  0
   -3.0958    0.4708    0.0000 C   0  0  0  0  0  0  0  0  0  0  0  0
    1.8542    1.6500    0.0000 C   0  0  0  0  0  0  0  0  0  0  0  0
    4.0000   -0.3542    0.0000 C   0  0  0  0  0  0  0  0  0  0  0  0
    4.0000    0.4625    0.0000 C   0  0  0  0  0  0  0  0  0  0  0  0
  2  4  1  0  0  0  0
  3  7  1  0  0  0  0
  4  1  1  0  0  0  0
  5  1  2  0  0  0  0
  6  3  1  0  0  0  0
  7  2  2  0  0  0  0
  8 11  1  0  0  0  0
  9 13  1  0  0  0  0
 10  9  2  0  0  0  0
 11  1  1  0  0  0  0
 12 10  1  0  0  0  0
 13 15  1  0  0  0  0
 14  6  1  0  0  0  0
 15  8  1  0  0  0  0
 16 20  1  0  0  0  0
 17  3  2  0  0  0  0
 18  6  2  0  0  0  0
 19 16  2  0  0  0  0
 20 13  2  0  0  0  0
 21 14  1  0  0  0  0
 22 17  1  0  0  0  0
 23 22  2  0  0  0  0
 19 10  1  0  0  0  0
 18 23  1  0  0  0  0
M  END
>  <ID> (5187344)
5187344

>  <Supplier> (5187344)
ChemBridge

>  <clogP> (5187344)
4.180000000000000e+000

>  <RB> (5187344)
6

>  <tPSA> (5187344)
5.069000000000000e+001

>  <Hacc> (5187344)
3

>  <Hdon> (5187344)
1

>  <LogSw> (5187344)
-5.637000000000000e+000

>  <Group> (5187344)
1

>  <Core> (5187344)
431

$$$$
7000813
  -ISIS-  03310818252D

 23 26  0  0  0  0  0  0  0  0999 V2000
   -1.5833   -3.1667    0.0000 N   0  0  3  0  0  0  0  0  0  0  0  0
    0.7375   -0.6292    0.0000 C   0  0  0  0  0  0  0  0  0  0  0  0
   -4.6625   -1.7375    0.0000 C   0  0  0  0  0  0  0  0  0  0  0  0
   -0.9500    2.2208    0.0000 N   0  0  0  0  0  0  0  0  0  0  0  0
   -4.3458    1.4333    0.0000 N   0  0  0  0  0  0  0  0  0  0  0  0
    4.0167   -1.4292    0.0000 C   0  0  0  0  0  0  0  0  0  0  0  0
    6.3500    0.9500    0.0000 C   0  0  0  0  0  0  0  0  0  0  0  0
   -1.0500   -6.5042    0.0000 C   0  0  0  0  0  0  0  0  0  0  0  0
    9.5292    0.1500    0.0000 C   0  0  0  0  0  0  0  0  0  0  0  0
   -7.7292   -3.3292    0.0000 S   0  0  0  0  0  0  0  0  0  0  0  0
   11.8542    2.5458    0.0000 C   0  0  0  0  0  0  0  0  0  0  0  0
    5.4000    4.2792    0.0000 C   0  0  0  0  0  0  0  0  0  0  0  0
    7.7292    6.5042    0.0000 C   0  0  0  0  0  0  0  0  0  0  0  0
   10.3792   -3.0167    0.0000 C   0  0  0  0  0  0  0  0  0  0  0  0
   -3.7000   -8.5792    0.0000 C   0  0  0  0  0  0  0  0  0  0  0  0
    2.2167   -7.7792    0.0000 C   0  0  0  0  0  0  0  0  0  0  0  0
   11.0167    5.7167    0.0000 C   0  0  0  0  0  0  0  0  0  0  0  0
   15.0375    1.5833    0.0000 C   0  0  0  0  0  0  0  0  0  0  0  0
   13.6542   -3.9667    0.0000 C   0  0  0  0  0  0  0  0  0  0  0  0
    2.7500  -11.1167    0.0000 C   0  0  0  0  0  0  0  0  0  0  0  0
   -3.1708  -12.0667    0.0000 C   0  0  0  0  0  0  0  0  0  0  0  0
   16.0000   -1.5792    0.0000 C   0  0  0  0  0  0  0  0  0  0  0  0
    0.1000  -13.3500    0.0000 C   0  0  0  0  0  0  0  0  0  0  0  0
  2  1  1  0  0  0  0
  3  1  1  0  0  0  0
  4  2  2  0  0  0  0
  5  3  2  0  0  0  0
  6  2  1  0  0  0  0
  7  6  1  0  0  0  0
  8  1  1  0  0  0  0
  9  7  2  0  0  0  0
 10  3  1  0  0  0  0
 11  9  1  0  0  0  0
 12  7  1  0  0  0  0
 13 12  2  0  0  0  0
 14  9  1  0  0  0  0
 15  8  2  0  0  0  0
 16  8  1  0  0  0  0
 17 13  1  0  0  0  0
 18 11  1  0  0  0  0
 19 14  2  0  0  0  0
 20 16  2  0  0  0  0
 21 15  1  0  0  0  0
 22 19  1  0  0  0  0
 23 20  1  0  0  0  0
  5  4  1  0  0  0  0
 23 21  2  0  0  0  0
 11 17  2  0  0  0  0
 22 18  2  0  0  0  0
M  END
>  <ID> (7000813)
7000813

>  <Supplier> (7000813)
ChemBridge

>  <clogP> (7000813)
4.640000000000000e+000

>  <RB> (7000813)
3

>  <tPSA> (7000813)
3.071000000000000e+001

>  <Hacc> (7000813)
3

>  <Hdon> (7000813)
0

>  <LogSw> (7000813)
-5.477000000000000e+000

>  <Group> (7000813)
3

>  <Core> (7000813)
029

$$$$
7000810
  -ISIS-  03310818252D

 28 30  0  0  0  0  0  0  0  0999 V2000
    1.9042   -1.3125    0.0000 S   0  0  3  0  0  0  0  0  0  0  0  0
    2.6167   -0.8917    0.0000 N   0  0  3  0  0  0  0  0  0  0  0  0
    4.7542    0.3583    0.0000 C   0  0  0  0  0  0  0  0  0  0  0  0
    5.4667   -0.0542    0.0000 N   0  0  0  0  0  0  0  0  0  0  0  0
    6.1792    0.3625    0.0000 C   0  0  0  0  0  0  0  0  0  0  0  0
    1.1917   -1.7292    0.0000 C   0  0  0  0  0  0  0  0  0  0  0  0
    1.4875   -0.5917    0.0000 O   0  0  0  0  0  0  0  0  0  0  0  0
    2.3125   -2.0250    0.0000 O   0  0  0  0  0  0  0  0  0  0  0  0
    4.0375   -0.0625    0.0000 C   0  0  3  0  0  0  0  0  0  0  0  0
    6.8917   -0.0500    0.0000 C   0  0  0  0  0  0  0  0  0  0  0  0
    3.3292   -1.3042    0.0000 C   0  0  0  0  0  0  0  0  0  0  0  0
    2.6042   -0.0667    0.0000 C   0  0  0  0  0  0  0  0  0  0  0  0
    6.1750    1.1833    0.0000 C   0  0  0  0  0  0  0  0  0  0  0  0
    4.7500    1.1833    0.0000 O   0  0  0  0  0  0  0  0  0  0  0  0
    3.3167    0.3458    0.0000 C   0  0  0  0  0  0  0  0  0  0  0  0
    4.0417   -0.8875    0.0000 C   0  0  0  0  0  0  0  0  0  0  0  0
    0.4750   -1.3167    0.0000 C   0  0  0  0  0  0  0  0  0  0  0  0
    1.1917   -2.5542    0.0000 C   0  0  0  0  0  0  0  0  0  0  0  0
    7.6042    0.3708    0.0000 C   0  0  0  0  0  0  0  0  0  0  0  0
    6.8792    1.6083    0.0000 C   0  0  0  0  0  0  0  0  0  0  0  0
   -0.2375   -2.5542    0.0000 C   0  0  0  0  0  0  0  0  0  0  0  0
   -0.2375   -1.7292    0.0000 C   0  0  0  0  0  0  0  0  0  0  0  0
    0.4750   -2.9667    0.0000 C   0  0  0  0  0  0  0  0  0  0  0  0
    7.6042    1.1958    0.0000 C   0  0  0  0  0  0  0  0  0  0  0  0
   -0.9583   -2.9667    0.0000 Cl  0  0  0  0  0  0  0  0  0  0  0  0
    6.9042   -0.8667    0.0000 O   0  0  0  0  0  0  0  0  0  0  0  0
    6.8667    2.4333    0.0000 C   0  0  0  0  0  0  0  0  0  0  0  0
    7.6167   -1.2792    0.0000 C   0  0  0  0  0  0  0  0  0  0  0  0
  2  1  1  0  0  0  0
  3  9  1  0  0  0  0
  4  3  1  0  0  0  0
  5  4  1  0  0  0  0
  6  1  1  0  0  0  0
  7  1  2  0  0  0  0
  8  1  2  0  0  0  0
  9 15  1  0  0  0  0
 10  5  2  0  0  0  0
 11  2  1  0  0  0  0
 12  2  1  0  0  0  0
 13  5  1  0  0  0  0
 14  3  2  0  0  0  0
 15 12  1  0  0  0  0
 16 11  1  0  0  0  0
 17  6  2  0  0  0  0
 18  6  1  0  0  0  0
 19 10  1  0  0  0  0
 20 13  2  0  0  0  0
 21 23  1  0  0  0  0
 22 17  1  0  0  0  0
 23 18  2  0  0  0  0
 24 20  1  0  0  0  0
 25 21  1  0  0  0  0
 26 10  1  0  0  0  0
 27 20  1  0  0  0  0
 28 26  1  0  0  0  0
 22 21  2  0  0  0  0
 16  9  1  0  0  0  0
 24 19  2  0  0  0  0
M  END
>  <ID> (7000810)
7000810

>  <Supplier> (7000810)
ChemBridge

>  <clogP> (7000810)
3.060000000000000e+000

>  <RB> (7000810)
3

>  <tPSA> (7000810)
7.570999999999999e+001

>  <Hacc> (7000810)
5

>  <Hdon> (7000810)
1

>  <LogSw> (7000810)
-4.896000000000000e+000

>  <Group> (7000810)
1

>  <Core> (7000810)
050

$$$$
7000816
  -ISIS-  03310818252D

 23 26  0  0  0  0  0  0  0  0999 V2000
   -0.3500    2.7208    0.0000 C   0  0  3  0  0  0  0  0  0  0  0  0
    3.4667    2.5958    0.0000 N   0  0  0  0  0  0  0  0  0  0  0  0
   -0.3500   -1.0500    0.0000 C   0  0  0  0  0  0  0  0  0  0  0  0
   -3.9125   -2.1500    0.0000 N   0  0  3  0  0  0  0  0  0  0  0  0
   -3.9125    3.8625    0.0000 C   0  0  0  0  0  0  0  0  0  0  0  0
   -2.1500    6.1500    0.0000 N   0  0  0  0  0  0  0  0  0  0  0  0
    5.4500    5.7917    0.0000 C   0  0  0  0  0  0  0  0  0  0  0  0
   -6.1042    0.8333    0.0000 C   0  0  0  0  0  0  0  0  0  0  0  0
    3.6875    9.2667    0.0000 C   0  0  0  0  0  0  0  0  0  0  0  0
   -0.0458    9.3042    0.0000 C   0  0  0  0  0  0  0  0  0  0  0  0
    2.7167   -3.2875    0.0000 O   0  0  0  0  0  0  0  0  0  0  0  0
    9.3542    5.7042    0.0000 O   0  0  0  0  0  0  0  0  0  0  0  0
   -5.0958   -5.8375    0.0000 C   0  0  0  0  0  0  0  0  0  0  0  0
   -2.5000   -8.7375    0.0000 C   0  0  0  0  0  0  0  0  0  0  0  0
   -3.7833  -12.2542    0.0000 C   0  0  0  0  0  0  0  0  0  0  0  0
   -5.6208    7.3375    0.0000 C   0  0  0  0  0  0  0  0  0  0  0  0
    5.7500   12.3792    0.0000 C   0  0  0  0  0  0  0  0  0  0  0  0
   -9.8000    1.0958    0.0000 C   0  0  0  0  0  0  0  0  0  0  0  0
   -1.8000   12.7375    0.0000 C   0  0  0  0  0  0  0  0  0  0  0  0
   -9.4417    7.6375    0.0000 C   0  0  0  0  0  0  0  0  0  0  0  0
    4.0000   15.8167    0.0000 C   0  0  0  0  0  0  0  0  0  0  0  0
  -11.4167    4.4292    0.0000 C   0  0  0  0  0  0  0  0  0  0  0  0
    0.1667   16.0000    0.0000 C   0  0  0  0  0  0  0  0  0  0  0  0
  2  1  1  0  0  0  0
  3  1  1  0  0  0  0
  4  3  1  0  0  0  0
  5  1  1  0  0  0  0
  6  1  1  0  0  0  0
  7  2  1  0  0  0  0
  8  5  2  0  0  0  0
  9 10  2  0  0  0  0
 10  6  1  0  0  0  0
 11  3  2  0  0  0  0
 12  7  2  0  0  0  0
 13  4  1  0  0  0  0
 14 13  1  0  0  0  0
 15 14  2  0  0  0  0
 16  5  1  0  0  0  0
 17  9  1  0  0  0  0
 18  8  1  0  0  0  0
 19 10  1  0  0  0  0
 20 16  2  0  0  0  0
 21 23  1  0  0  0  0
 22 20  1  0  0  0  0
 23 19  2  0  0  0  0
  8  4  1  0  0  0  0
  7  9  1  0  0  0  0
 22 18  2  0  0  0  0
 21 17  2  0  0  0  0
M  END
>  <ID> (7000816)
7000816

>  <Supplier> (7000816)
ChemBridge

>  <clogP> (7000816)
2.660000000000000e+000

>  <RB> (7000816)
2

>  <tPSA> (7000816)
6.143999999999998e+001

>  <Hacc> (7000816)
2

>  <Hdon> (7000816)
2

>  <LogSw> (7000816)
-3.699000000000000e+000

>  <Group> (7000816)
1

>  <Core> (7000816)
388

$$$$
7000815
  -ISIS-  03310818252D

 27 30  0  0  0  0  0  0  0  0999 V2000
    0.9250   -1.3042    0.0000 C   0  0  0  0  0  0  0  0  0  0  0  0
    1.3250   -0.5917    0.0000 C   0  0  0  0  0  0  0  0  0  0  0  0
    2.1542   -0.5750    0.0000 N   0  0  3  0  0  0  0  0  0  0  0  0
    1.3417   -2.0292    0.0000 C   0  0  0  0  0  0  0  0  0  0  0  0
    0.1125   -1.4917    0.0000 C   0  0  0  0  0  0  0  0  0  0  0  0
    2.1750   -2.0167    0.0000 N   0  0  0  0  0  0  0  0  0  0  0  0
    2.5750   -1.2917    0.0000 C   0  0  0  0  0  0  0  0  0  0  0  0
    0.8000   -2.6417    0.0000 S   0  0  0  0  0  0  0  0  0  0  0  0
    0.0375   -2.3250    0.0000 C   0  0  0  0  0  0  0  0  0  0  0  0
    2.5625    0.1458    0.0000 C   0  0  0  0  0  0  0  0  0  0  0  0
    3.3875    0.1500    0.0000 C   0  0  0  0  0  0  0  0  0  0  0  0
   -0.5708   -1.0167    0.0000 C   0  0  0  0  0  0  0  0  0  0  0  0
    5.0500   -1.2667    0.0000 C   0  0  0  0  0  0  0  0  0  0  0  0
    0.9000    0.1208    0.0000 O   0  0  0  0  0  0  0  0  0  0  0  0
    5.7375   -0.8167    0.0000 O   0  0  0  0  0  0  0  0  0  0  0  0
    3.8042   -0.5625    0.0000 N   0  0  0  0  0  0  0  0  0  0  0  0
    5.2667   -2.0625    0.0000 C   0  0  0  0  0  0  0  0  0  0  0  0
    6.3750   -1.3292    0.0000 C   0  0  0  0  0  0  0  0  0  0  0  0
    6.0792   -2.1000    0.0000 C   0  0  0  0  0  0  0  0  0  0  0  0
    3.7917    0.8708    0.0000 O   0  0  0  0  0  0  0  0  0  0  0  0
   -0.4958   -0.1917    0.0000 C   0  0  0  0  0  0  0  0  0  0  0  0
   -1.3125   -1.3667    0.0000 C   0  0  0  0  0  0  0  0  0  0  0  0
    4.6292   -0.5542    0.0000 C   0  0  0  0  0  0  0  0  0  0  0  0
   -1.9250   -0.0667    0.0000 C   0  0  0  0  0  0  0  0  0  0  0  0
   -1.9958   -0.9000    0.0000 C   0  0  0  0  0  0  0  0  0  0  0  0
   -1.1708    0.2833    0.0000 C   0  0  0  0  0  0  0  0  0  0  0  0
   -2.5958    0.4000    0.0000 Cl  0  0  0  0  0  0  0  0  0  0  0  0
  2  1  1  0  0  0  0
  3  2  1  0  0  0  0
  4  1  2  0  0  0  0
  5  1  1  0  0  0  0
  6  4  1  0  0  0  0
  7  6  2  0  0  0  0
  8  4  1  0  0  0  0
  9  5  2  0  0  0  0
 10  3  1  0  0  0  0
 11 10  1  0  0  0  0
 12  5  1  0  0  0  0
 13 23  1  0  0  0  0
 14  2  2  0  0  0  0
 15 13  1  0  0  0  0
 16 11  1  0  0  0  0
 17 13  2  0  0  0  0
 18 15  1  0  0  0  0
 19 17  1  0  0  0  0
 20 11  2  0  0  0  0
 21 12  2  0  0  0  0
 22 12  1  0  0  0  0
 23 16  1  0  0  0  0
 24 25  1  0  0  0  0
 25 22  2  0  0  0  0
 26 21  1  0  0  0  0
 27 24  1  0  0  0  0
  8  9  1  0  0  0  0
  3  7  1  0  0  0  0
 26 24  2  0  0  0  0
 18 19  2  0  0  0  0
M  END
>  <ID> (7000815)
7000815

>  <Supplier> (7000815)
ChemBridge

>  <clogP> (7000815)
3.300000000000000e+000

>  <RB> (7000815)
5

>  <tPSA> (7000815)
7.713000000000000e+001

>  <Hacc> (7000815)
4

>  <Hdon> (7000815)
1

>  <LogSw> (7000815)
-4.933000000000002e+000

>  <Group> (7000815)
3

>  <Core> (7000815)
062

$$$$
6429020
  -ISIS-  03310818232D

 23 25  0  0  0  0  0  0  0  0999 V2000
   -1.3958   -0.7667    0.0000 N   0  3  0  0  0  0  0  0  0  0  0  0
    1.8625    0.3250    0.0000 C   0  0  0  0  0  0  0  0  0  0  0  0
    4.5250    0.3500    0.0000 C   0  0  0  0  0  0  0  0  0  0  0  0
   -0.7458   -0.4042    0.0000 C   0  0  0  0  0  0  0  0  0  0  0  0
    3.8750    0.7333    0.0000 C   0  0  0  0  0  0  0  0  0  0  0  0
   -2.0458   -0.3917    0.0000 O   0  5  0  0  0  0  0  0  0  0  0  0
    2.5792    0.7333    0.0000 N   0  0  0  0  0  0  0  0  0  0  0  0
    4.5167   -0.4000    0.0000 C   0  0  0  0  0  0  0  0  0  0  0  0
   -1.4000   -1.5167    0.0000 O   0  0  0  0  0  0  0  0  0  0  0  0
    3.2167    0.3583    0.0000 C   0  0  0  0  0  0  0  0  0  0  0  0
    5.1750    0.7208    0.0000 O   0  0  0  0  0  0  0  0  0  0  0  0
    5.1625   -0.7792    0.0000 O   0  0  0  0  0  0  0  0  0  0  0  0
    1.8542   -0.5000    0.0000 O   0  0  0  0  0  0  0  0  0  0  0  0
   -0.7375    0.3458    0.0000 C   0  0  0  0  0  0  0  0  0  0  0  0
   -0.0958   -0.7792    0.0000 C   0  0  0  0  0  0  0  0  0  0  0  0
    3.8667   -0.7667    0.0000 C   0  0  0  0  0  0  0  0  0  0  0  0
    1.2125    0.7083    0.0000 C   0  0  0  0  0  0  0  0  0  0  0  0
    0.5625    0.3375    0.0000 C   0  0  0  0  0  0  0  0  0  0  0  0
    3.2167   -0.3917    0.0000 C   0  0  0  0  0  0  0  0  0  0  0  0
   -0.0833    0.7208    0.0000 C   0  0  0  0  0  0  0  0  0  0  0  0
    0.5542   -0.4125    0.0000 C   0  0  0  0  0  0  0  0  0  0  0  0
    5.8250    0.3458    0.0000 C   0  0  0  0  0  0  0  0  0  0  0  0
    5.8167   -0.4042    0.0000 C   0  0  0  0  0  0  0  0  0  0  0  0
  2 17  1  0  0  0  0
  3  5  2  0  0  0  0
  4  1  1  0  0  0  0
  5 10  1  0  0  0  0
  6  1  1  0  0  0  0
  7  2  1  0  0  0  0
  8 16  2  0  0  0  0
  9  1  2  0  0  0  0
 10  7  1  0  0  0  0
 11  3  1  0  0  0  0
 12  8  1  0  0  0  0
 13  2  2  0  0  0  0
 14  4  1  0  0  0  0
 15  4  2  0  0  0  0
 16 19  1  0  0  0  0
 17 18  1  0  0  0  0
 18 21  2  0  0  0  0
 19 10  2  0  0  0  0
 20 14  2  0  0  0  0
 21 15  1  0  0  0  0
 22 11  1  0  0  0  0
 23 12  1  0  0  0  0
 20 18  1  0  0  0  0
  3  8  1  0  0  0  0
 22 23  1  0  0  0  0
M  CHG  2   1   1   6  -1
M  END
>  <ID> (6429020)
6429020

>  <Supplier> (6429020)
ChemBridge

>  <clogP> (6429020)
2.450000000000000e+000

>  <RB> (6429020)
3

>  <tPSA> (6429020)
9.070000000000000e+001

>  <Hacc> (6429020)
5

>  <Hdon> (6429020)
1

>  <LogSw> (6429020)
-3.974000000000000e+000

>  <Group> (6429020)
3

>  <Core> (6429020)
513

$$$$
7265618
  -ISIS-  03310818262D

 19 21  0  0  0  0  0  0  0  0999 V2000
   -1.0958    3.1708    0.0000 C   0  0  3  0  0  0  0  0  0  0  0  0
   -2.6833    5.7917    0.0000 C   0  0  0  0  0  0  0  0  0  0  0  0
    1.9875    3.1708    0.0000 C   0  0  3  0  0  0  0  0  0  0  0  0
   -7.6500    8.4375    0.0000 C   0  0  0  0  0  0  0  0  0  0  0  0
   -5.7958    5.7917    0.0000 N   0  0  0  0  0  0  0  0  0  0  0  0
   -2.6000    0.5208    0.0000 C   0  0  3  0  0  0  0  0  0  0  0  0
    3.5292    0.6000    0.0000 C   0  0  3  0  0  0  0  0  0  0  0  0
    0.4792   -0.4792    0.0000 O   0  0  0  0  0  0  0  0  0  0  0  0
   -6.5875   11.2500    0.0000 N   0  0  0  0  0  0  0  0  0  0  0  0
  -10.7375    8.4375    0.0000 S   0  0  0  0  0  0  0  0  0  0  0  0
    3.6042    5.8417    0.0000 C   0  0  0  0  0  0  0  0  0  0  0  0
    1.9875   -2.1042    0.0000 C   0  0  0  0  0  0  0  0  0  0  0  0
   -1.0500   -2.1875    0.0000 C   0  0  0  0  0  0  0  0  0  0  0  0
   -9.1167   13.1042    0.0000 C   0  0  0  0  0  0  0  0  0  0  0  0
  -11.6875   11.3542    0.0000 C   0  0  0  0  0  0  0  0  0  0  0  0
   -1.1708    8.5292    0.0000 O   0  0  0  0  0  0  0  0  0  0  0  0
    2.1042    8.6875    0.0000 O   0  0  0  0  0  0  0  0  0  0  0  0
    6.6542    5.5167    0.0000 O   0  0  0  0  0  0  0  0  0  0  0  0
   -9.1542   16.0000    0.0000 C   0  0  0  0  0  0  0  0  0  0  0  0
  2  1  1  0  0  0  0
  3  1  1  0  0  0  0
  4  5  1  0  0  0  0
  5  2  1  0  0  0  0
  6  1  1  0  0  0  0
  7  3  1  0  0  0  0
  8  6  1  0  0  0  0
  9  4  2  0  0  0  0
 10  4  1  0  0  0  0
 11  3  1  0  0  0  0
 12 13  2  0  0  0  0
 13  6  1  0  0  0  0
 14  9  1  0  0  0  0
 15 10  1  0  0  0  0
 16  2  2  0  0  0  0
 17 11  2  0  0  0  0
 18 11  1  0  0  0  0
 19 14  1  0  0  0  0
  7  8  1  0  0  0  0
 12  7  1  0  0  0  0
 15 14  2  0  0  0  0
M  END
>  <ID> (7265618)
7265618

>  <Supplier> (7265618)
ChemBridge

>  <clogP> (7265618)
6.800000000000001e-001

>  <RB> (7265618)
3

>  <tPSA> (7265618)
8.852000000000004e+001

>  <Hacc> (7265618)
5

>  <Hdon> (7265618)
2

>  <LogSw> (7265618)
-1.825000000000000e+000

>  <Group> (7265618)
3

>  <Core> (7265618)
227

$$$$
7978334
  -ISIS-  03310818282D

 32 35  0  0  0  0  0  0  0  0999 V2000
    6.5750    0.8875    0.0000 N   0  0  3  0  0  0  0  0  0  0  0  0
    2.6417    0.9583    0.0000 C   0  0  0  0  0  0  0  0  0  0  0  0
    5.8917    0.5833    0.0000 C   0  0  0  0  0  0  0  0  0  0  0  0
    5.9667   -0.1542    0.0000 N   0  0  0  0  0  0  0  0  0  0  0  0
    2.5667    1.7083    0.0000 N   0  0  0  0  0  0  0  0  0  0  0  0
    6.7042   -0.3167    0.0000 N   0  0  0  0  0  0  0  0  0  0  0  0
    7.0792    0.3333    0.0000 C   0  0  0  0  0  0  0  0  0  0  0  0
    1.9542    0.6500    0.0000 S   0  0  0  0  0  0  0  0  0  0  0  0
    3.2917    0.5833    0.0000 N   0  0  0  0  0  0  0  0  0  0  0  0
    1.8292    1.8583    0.0000 C   0  0  0  0  0  0  0  0  0  0  0  0
    1.4542    1.2083    0.0000 C   0  0  0  0  0  0  0  0  0  0  0  0
    9.4500   -0.7250    0.0000 C   0  0  0  0  0  0  0  0  0  0  0  0
    5.2417    0.9583    0.0000 S   0  0  0  0  0  0  0  0  0  0  0  0
    3.9417    0.9583    0.0000 C   0  0  0  0  0  0  0  0  0  0  0  0
   10.1917   -0.6500    0.0000 C   0  0  0  0  0  0  0  0  0  0  0  0
    7.8250    0.4083    0.0000 C   0  0  0  0  0  0  0  0  0  0  0  0
    9.1417   -1.4125    0.0000 O   0  0  0  0  0  0  0  0  0  0  0  0
    3.9417    1.7083    0.0000 O   0  0  0  0  0  0  0  0  0  0  0  0
    9.0125   -0.1167    0.0000 N   0  0  0  0  0  0  0  0  0  0  0  0
    4.5917    0.5833    0.0000 C   0  0  0  0  0  0  0  0  0  0  0  0
   10.6375   -1.2542    0.0000 C   0  0  0  0  0  0  0  0  0  0  0  0
   10.5042    0.0375    0.0000 C   0  0  0  0  0  0  0  0  0  0  0  0
    6.7292    1.6208    0.0000 C   0  0  0  0  0  0  0  0  0  0  0  0
    8.2667   -0.2000    0.0000 C   0  0  0  0  0  0  0  0  0  0  0  0
   11.6917   -0.4917    0.0000 C   0  0  0  0  0  0  0  0  0  0  0  0
   11.3792   -1.1750    0.0000 C   0  0  0  0  0  0  0  0  0  0  0  0
   11.2500    0.1208    0.0000 C   0  0  0  0  0  0  0  0  0  0  0  0
   12.4375   -0.4125    0.0000 F   0  0  0  0  0  0  0  0  0  0  0  0
    1.4542    2.5083    0.0000 C   0  0  0  0  0  0  0  0  0  0  0  0
    0.7042    1.2083    0.0000 C   0  0  0  0  0  0  0  0  0  0  0  0
    0.7042    2.5083    0.0000 C   0  0  0  0  0  0  0  0  0  0  0  0
    0.3292    1.8583    0.0000 C   0  0  0  0  0  0  0  0  0  0  0  0
  2  9  1  0  0  0  0
  3  1  1  0  0  0  0
  4  3  2  0  0  0  0
  5  2  2  0  0  0  0
  6  7  2  0  0  0  0
  7  1  1  0  0  0  0
  8  2  1  0  0  0  0
  9 14  1  0  0  0  0
 10  5  1  0  0  0  0
 11  8  1  0  0  0  0
 12 19  1  0  0  0  0
 13  3  1  0  0  0  0
 14 20  1  0  0  0  0
 15 12  1  0  0  0  0
 16  7  1  0  0  0  0
 17 12  2  0  0  0  0
 18 14  2  0  0  0  0
 19 24  1  0  0  0  0
 20 13  1  0  0  0  0
 21 15  2  0  0  0  0
 22 15  1  0  0  0  0
 23  1  1  0  0  0  0
 24 16  1  0  0  0  0
 25 27  1  0  0  0  0
 26 21  1  0  0  0  0
 27 22  2  0  0  0  0
 28 25  1  0  0  0  0
 29 10  1  0  0  0  0
 30 11  1  0  0  0  0
 31 29  2  0  0  0  0
 32 30  2  0  0  0  0
  6  4  1  0  0  0  0
 25 26  2  0  0  0  0
 11 10  2  0  0  0  0
 31 32  1  0  0  0  0
M  END
>  <ID> (7978334)
7978334

>  <Supplier> (7978334)
ChemBridge

>  <clogP> (7978334)
2.128000000000000e+000

>  <RB> (7978334)
8

>  <tPSA> (7978334)
1.018000000000000e+002

>  <Hacc> (7978334)
5

>  <Hdon> (7978334)
2

>  <LogSw> (7978334)
-4.447000000000000e+000

>  <Group> (7978334)
1

>  <Core> (7978334)
550

$$$$
7711158
  -ISIS-  03310818262D

 16 17  0  0  0  0  0  0  0  0999 V2000
    2.7042    3.1208    0.0000 N   0  0  0  0  0  0  0  0  0  0  0  0
    3.7292    1.9458    0.0000 N   0  0  0  0  0  0  0  0  0  0  0  0
    2.8667    1.5958    0.0000 N   0  0  3  0  0  0  0  0  0  0  0  0
   -0.9500    2.7125    0.0000 N   0  0  0  0  0  0  0  0  0  0  0  0
    3.6292    2.9208    0.0000 C   0  0  0  0  0  0  0  0  0  0  0  0
    2.2292    2.2708    0.0000 C   0  0  0  0  0  0  0  0  0  0  0  0
   -0.9625    1.7708    0.0000 C   0  0  0  0  0  0  0  0  0  0  0  0
   -0.9708    0.8208    0.0000 C   0  0  0  0  0  0  0  0  0  0  0  0
   -0.1708    0.3500    0.0000 C   0  0  0  0  0  0  0  0  0  0  0  0
    2.6667    0.6625    0.0000 C   0  0  0  0  0  0  0  0  0  0  0  0
    0.7875    0.7208    0.0000 O   0  0  0  0  0  0  0  0  0  0  0  0
    1.6167    0.3333    0.0000 C   0  0  0  0  0  0  0  0  0  0  0  0
   -1.7833    0.3500    0.0000 C   0  0  0  0  0  0  0  0  0  0  0  0
   -0.1708   -0.5875    0.0000 C   0  0  0  0  0  0  0  0  0  0  0  0
   -1.7833   -0.5875    0.0000 C   0  0  0  0  0  0  0  0  0  0  0  0
   -0.9708   -1.0667    0.0000 C   0  0  0  0  0  0  0  0  0  0  0  0
  2  5  2  0  0  0  0
  3  6  1  0  0  0  0
  4  7  3  0  0  0  0
  5  1  1  0  0  0  0
  6  1  2  0  0  0  0
  7  8  1  0  0  0  0
  8  9  1  0  0  0  0
  9 11  1  0  0  0  0
 10  3  1  0  0  0  0
 11 12  1  0  0  0  0
 12 10  1  0  0  0  0
 13  8  2  0  0  0  0
 14  9  2  0  0  0  0
 15 16  2  0  0  0  0
 16 14  1  0  0  0  0
  3  2  1  0  0  0  0
 15 13  1  0  0  0  0
M  END
>  <ID> (7711158)
7711158

>  <Supplier> (7711158)
ChemBridge

>  <clogP> (7711158)
1.397000000000000e+000

>  <RB> (7711158)
4

>  <tPSA> (7711158)
6.373000000000000e+001

>  <Hacc> (7711158)
5

>  <Hdon> (7711158)
0

>  <LogSw> (7711158)
-1.938000000000000e+000

>  <Group> (7711158)
3

>  <Core> (7711158)
318

$$$$
6496005
  -ISIS-  03310818242D

 24 26  0  0  0  0  0  0  0  0999 V2000
   -1.1208   -1.3500    0.0000 C   0  0  0  0  0  0  0  0  0  0  0  0
   -1.4958   -2.0292    0.0000 N   0  3  0  0  0  0  0  0  0  0  0  0
   -1.5208   -0.6375    0.0000 C   0  0  0  0  0  0  0  0  0  0  0  0
    0.8500   -0.6292    0.0000 C   0  0  0  0  0  0  0  0  0  0  0  0
   -0.3333   -1.3500    0.0000 C   0  0  0  0  0  0  0  0  0  0  0  0
    1.2292    0.0458    0.0000 C   0  0  0  0  0  0  0  0  0  0  0  0
    0.0667   -0.6375    0.0000 C   0  0  0  0  0  0  0  0  0  0  0  0
   -2.3125   -0.6042    0.0000 N   0  0  3  0  0  0  0  0  0  0  0  0
    2.0292    0.0708    0.0000 C   0  0  0  0  0  0  0  0  0  0  0  0
   -1.1458    0.0458    0.0000 C   0  0  0  0  0  0  0  0  0  0  0  0
   -2.2625   -2.0375    0.0000 O   0  5  0  0  0  0  0  0  0  0  0  0
    0.8167    0.6833    0.0000 C   0  0  0  0  0  0  0  0  0  0  0  0
   -1.0958   -2.6792    0.0000 O   0  0  0  0  0  0  0  0  0  0  0  0
   -0.3333    0.0500    0.0000 C   0  0  0  0  0  0  0  0  0  0  0  0
    1.2500   -1.2875    0.0000 O   0  0  0  0  0  0  0  0  0  0  0  0
    2.3792    0.7708    0.0000 C   0  0  0  0  0  0  0  0  0  0  0  0
    1.1792    1.3958    0.0000 C   0  0  0  0  0  0  0  0  0  0  0  0
    1.9500    1.4333    0.0000 C   0  0  0  0  0  0  0  0  0  0  0  0
   -2.7958   -1.2167    0.0000 C   0  0  0  0  0  0  0  0  0  0  0  0
   -2.7208    0.0458    0.0000 C   0  0  0  0  0  0  0  0  0  0  0  0
    2.4542   -0.5792    0.0000 C   0  0  0  0  0  0  0  0  0  0  0  0
    2.2875    2.1333    0.0000 C   0  0  0  0  0  0  0  0  0  0  0  0
   -3.5000   -0.1500    0.0000 C   0  0  0  0  0  0  0  0  0  0  0  0
   -3.5458   -0.9292    0.0000 C   0  0  0  0  0  0  0  0  0  0  0  0
  2  1  1  0  0  0  0
  3  1  2  0  0  0  0
  4  7  1  0  0  0  0
  5  1  1  0  0  0  0
  6  4  1  0  0  0  0
  7  5  2  0  0  0  0
  8  3  1  0  0  0  0
  9  6  2  0  0  0  0
 10  3  1  0  0  0  0
 11  2  1  0  0  0  0
 12  6  1  0  0  0  0
 13  2  2  0  0  0  0
 14  7  1  0  0  0  0
 15  4  2  0  0  0  0
 16  9  1  0  0  0  0
 17 12  2  0  0  0  0
 18 17  1  0  0  0  0
 19  8  1  0  0  0  0
 20  8  1  0  0  0  0
 21  9  1  0  0  0  0
 22 18  1  0  0  0  0
 23 20  1  0  0  0  0
 24 19  1  0  0  0  0
 10 14  2  0  0  0  0
 24 23  1  0  0  0  0
 18 16  2  0  0  0  0
M  CHG  2   2   1  11  -1
M  END
>  <ID> (6496005)
6496005

>  <Supplier> (6496005)
ChemBridge

>  <clogP> (6496005)
5.020000000000000e+000

>  <RB> (6496005)
3

>  <tPSA> (6496005)
6.345000000000000e+001

>  <Hacc> (6496005)
3

>  <Hdon> (6496005)
0

>  <LogSw> (6496005)
-6.243000000000000e+000

>  <Group> (6496005)
1

$$$$
9019513
  -ISIS-  03310818282D

 30 34  0  0  0  0  0  0  0  0999 V2000
    6.0417    1.2625    0.0000 C   0  0  0  0  0  0  0  0  0  0  0  0
    6.4167    1.9125    0.0000 C   0  0  0  0  0  0  0  0  0  0  0  0
    7.1500    1.7583    0.0000 C   0  0  0  0  0  0  0  0  0  0  0  0
    6.5417    0.7083    0.0000 S   0  0  0  0  0  0  0  0  0  0  0  0
    7.2250    1.0125    0.0000 C   0  0  0  0  0  0  0  0  0  0  0  0
    5.2917    1.2625    0.0000 C   0  0  0  0  0  0  0  0  0  0  0  0
    4.9167    1.9125    0.0000 N   0  0  3  0  0  0  0  0  0  0  0  0
    6.0417    2.5625    0.0000 N   0  0  0  0  0  0  0  0  0  0  0  0
    7.9125    0.7083    0.0000 N   0  0  0  0  0  0  0  0  0  0  0  0
    5.2917    2.5625    0.0000 C   0  0  0  0  0  0  0  0  0  0  0  0
    8.5167    1.1458    0.0000 C   0  0  0  0  0  0  0  0  0  0  0  0
    7.7542    2.1958    0.0000 C   0  0  0  0  0  0  0  0  0  0  0  0
    8.4417    1.8958    0.0000 C   0  0  0  0  0  0  0  0  0  0  0  0
    4.1667    1.9125    0.0000 C   0  0  0  0  0  0  0  0  0  0  0  0
    9.2042    0.8458    0.0000 C   0  0  0  0  0  0  0  0  0  0  0  0
    9.7292    2.0333    0.0000 O   0  0  0  0  0  0  0  0  0  0  0  0
    3.7917    2.5625    0.0000 C   0  0  0  0  0  0  0  0  0  0  0  0
    9.8125    1.2833    0.0000 C   0  0  3  0  0  0  0  0  0  0  0  0
    1.9167    3.2125    0.0000 C   0  0  0  0  0  0  0  0  0  0  0  0
    4.9167    0.6125    0.0000 O   0  0  0  0  0  0  0  0  0  0  0  0
    1.4750    3.8208    0.0000 O   0  0  0  0  0  0  0  0  0  0  0  0
    9.0417    2.3333    0.0000 C   0  0  0  0  0  0  0  0  0  0  0  0
    3.0417    2.5625    0.0000 N   0  0  0  0  0  0  0  0  0  0  0  0
    1.4750    2.6083    0.0000 C   0  0  0  0  0  0  0  0  0  0  0  0
    0.7625    3.5875    0.0000 C   0  0  0  0  0  0  0  0  0  0  0  0
    0.7625    2.8375    0.0000 C   0  0  0  0  0  0  0  0  0  0  0  0
    4.1667    3.2125    0.0000 O   0  0  0  0  0  0  0  0  0  0  0  0
    2.6667    3.2125    0.0000 C   0  0  0  0  0  0  0  0  0  0  0  0
   10.1375    0.6083    0.0000 C   0  0  0  0  0  0  0  0  0  0  0  0
   10.5292    1.4875    0.0000 C   0  0  0  0  0  0  0  0  0  0  0  0
  2  1  2  0  0  0  0
  3  2  1  0  0  0  0
  4  1  1  0  0  0  0
  5  4  1  0  0  0  0
  6  1  1  0  0  0  0
  7  6  1  0  0  0  0
  8  2  1  0  0  0  0
  9  5  2  0  0  0  0
 10  7  1  0  0  0  0
 11  9  1  0  0  0  0
 12  3  2  0  0  0  0
 13 12  1  0  0  0  0
 14  7  1  0  0  0  0
 15 11  1  0  0  0  0
 16 22  1  0  0  0  0
 17 14  1  0  0  0  0
 18 15  1  0  0  0  0
 19 28  1  0  0  0  0
 20  6  2  0  0  0  0
 21 19  1  0  0  0  0
 22 13  1  0  0  0  0
 23 17  1  0  0  0  0
 24 19  2  0  0  0  0
 25 21  1  0  0  0  0
 26 24  1  0  0  0  0
 27 17  2  0  0  0  0
 28 23  1  0  0  0  0
 29 18  1  0  0  0  0
 30 18  1  0  0  0  0
  3  5  1  0  0  0  0
 10  8  2  0  0  0  0
 13 11  2  0  0  0  0
 16 18  1  0  0  0  0
 26 25  2  0  0  0  0
M  END
>  <ID> (9019513)
9019513

>  <Supplier> (9019513)
ChemBridge

>  <clogP> (9019513)
1.243000000000000e+000

>  <RB> (9019513)
4

>  <tPSA> (9019513)
9.925000000000000e+001

>  <Hacc> (9019513)
6

>  <Hdon> (9019513)
1

>  <LogSw> (9019513)
-3.355999999999999e+000

>  <Group> (9019513)
2

$$$$
5865837
  -ISIS-  03310818232D

 26 29  0  0  0  0  0  0  0  0999 V2000
    0.3792    0.1833    0.0000 C   0  0  0  0  0  0  0  0  0  0  0  0
    1.0500    0.4000    0.0000 N   0  0  3  0  0  0  0  0  0  0  0  0
    0.3792    1.3000    0.0000 N   0  0  0  0  0  0  0  0  0  0  0  0
   -0.0125    0.7625    0.0000 C   0  0  0  0  0  0  0  0  0  0  0  0
    1.0500    1.1000    0.0000 C   0  0  0  0  0  0  0  0  0  0  0  0
    0.1500   -0.4667    0.0000 N   0  0  0  0  0  0  0  0  0  0  0  0
   -0.4208   -0.8500    0.0000 C   0  0  0  0  0  0  0  0  0  0  0  0
    1.6500    0.0458    0.0000 C   0  0  0  0  0  0  0  0  0  0  0  0
    1.6500    1.4458    0.0000 C   0  0  0  0  0  0  0  0  0  0  0  0
    2.2500    0.3833    0.0000 C   0  0  0  0  0  0  0  0  0  0  0  0
    2.2500    1.1000    0.0000 C   0  0  0  0  0  0  0  0  0  0  0  0
   -0.3958   -1.5500    0.0000 C   0  0  0  0  0  0  0  0  0  0  0  0
   -0.7125    0.7000    0.0000 C   0  0  0  0  0  0  0  0  0  0  0  0
   -1.0333   -0.5500    0.0000 O   0  0  0  0  0  0  0  0  0  0  0  0
   -0.9708   -1.9500    0.0000 C   0  0  0  0  0  0  0  0  0  0  0  0
    0.2000   -1.8667    0.0000 C   0  0  0  0  0  0  0  0  0  0  0  0
    2.8042    0.0208    0.0000 Cl  0  0  0  0  0  0  0  0  0  0  0  0
   -0.3458   -2.9500    0.0000 C   0  0  0  0  0  0  0  0  0  0  0  0
   -0.9458   -2.6042    0.0000 C   0  0  0  0  0  0  0  0  0  0  0  0
    0.2500   -2.5667    0.0000 C   0  0  0  0  0  0  0  0  0  0  0  0
   -0.3125   -3.6667    0.0000 F   0  0  0  0  0  0  0  0  0  0  0  0
   -1.1125    1.2833    0.0000 C   0  0  0  0  0  0  0  0  0  0  0  0
   -1.0333    0.0833    0.0000 C   0  0  0  0  0  0  0  0  0  0  0  0
   -1.7125    0.0458    0.0000 C   0  0  0  0  0  0  0  0  0  0  0  0
   -1.8125    1.2208    0.0000 C   0  0  0  0  0  0  0  0  0  0  0  0
   -2.1125    0.6208    0.0000 C   0  0  0  0  0  0  0  0  0  0  0  0
  2  1  1  0  0  0  0
  3  4  1  0  0  0  0
  4  1  2  0  0  0  0
  5  2  1  0  0  0  0
  6  1  1  0  0  0  0
  7  6  1  0  0  0  0
  8  2  1  0  0  0  0
  9  5  1  0  0  0  0
 10  8  2  0  0  0  0
 11 10  1  0  0  0  0
 12  7  1  0  0  0  0
 13  4  1  0  0  0  0
 14  7  2  0  0  0  0
 15 12  2  0  0  0  0
 16 12  1  0  0  0  0
 17 10  1  0  0  0  0
 18 20  1  0  0  0  0
 19 15  1  0  0  0  0
 20 16  2  0  0  0  0
 21 18  1  0  0  0  0
 22 13  2  0  0  0  0
 23 13  1  0  0  0  0
 24 23  2  0  0  0  0
 25 22  1  0  0  0  0
 26 24  1  0  0  0  0
  5  3  2  0  0  0  0
 11  9  2  0  0  0  0
 19 18  2  0  0  0  0
 26 25  2  0  0  0  0
M  END
>  <ID> (5865837)
5865837

>  <Supplier> (5865837)
ChemBridge

>  <clogP> (5865837)
4.460000000000000e+000

>  <RB> (5865837)
3

>  <tPSA> (5865837)
4.640000000000000e+001

>  <Hacc> (5865837)
3

>  <Hdon> (5865837)
1

>  <LogSw> (5865837)
-5.676000000000000e+000

>  <Group> (5865837)
3

>  <Core> (5865837)
473

$$$$
5865835
  -ISIS-  03310818232D

 30 33  0  0  0  0  0  0  0  0999 V2000
    1.5167   -3.9375    0.0000 C   0  0  0  0  0  0  0  0  0  0  0  0
    4.3667   -0.5875    0.0000 C   0  0  0  0  0  0  0  0  0  0  0  0
    3.7000   -0.2000    0.0000 C   0  0  0  0  0  0  0  0  0  0  0  0
    2.2375   -2.7000    0.0000 N   0  0  3  0  0  0  0  0  0  0  0  0
    0.8500   -4.3167    0.0000 C   0  0  0  0  0  0  0  0  0  0  0  0
    3.6500   -1.8292    0.0000 N   0  0  3  0  0  0  0  0  0  0  0  0
    3.6875    0.5708    0.0000 C   0  0  0  0  0  0  0  0  0  0  0  0
    1.5167   -3.1042    0.0000 C   0  0  0  0  0  0  0  0  0  0  0  0
    4.3667   -1.4167    0.0000 C   0  0  0  0  0  0  0  0  0  0  0  0
    4.3667    0.9500    0.0000 C   0  0  0  0  0  0  0  0  0  0  0  0
    5.0167   -0.1875    0.0000 C   0  0  0  0  0  0  0  0  0  0  0  0
    0.8500   -5.1000    0.0000 C   0  0  0  0  0  0  0  0  0  0  0  0
    5.0375    0.5625    0.0000 C   0  0  0  0  0  0  0  0  0  0  0  0
    3.6667   -2.6500    0.0000 C   0  0  0  0  0  0  0  0  0  0  0  0
    2.9167   -1.4375    0.0000 C   0  0  0  0  0  0  0  0  0  0  0  0
    2.9667   -3.0875    0.0000 C   0  0  0  0  0  0  0  0  0  0  0  0
    2.2042   -1.8667    0.0000 C   0  0  0  0  0  0  0  0  0  0  0  0
    0.2000   -3.9375    0.0000 O   0  0  0  0  0  0  0  0  0  0  0  0
    2.1917   -4.3167    0.0000 C   0  0  0  0  0  0  0  0  0  0  0  0
    4.3542    1.7208    0.0000 O   0  0  0  0  0  0  0  0  0  0  0  0
    0.2000   -5.4875    0.0000 O   0  0  0  0  0  0  0  0  0  0  0  0
    3.0167   -0.6000    0.0000 C   0  0  0  0  0  0  0  0  0  0  0  0
    3.0042    0.9625    0.0000 C   0  0  0  0  0  0  0  0  0  0  0  0
    2.1917   -5.1000    0.0000 C   0  0  0  0  0  0  0  0  0  0  0  0
    1.5167   -5.4792    0.0000 C   0  0  0  0  0  0  0  0  0  0  0  0
    0.2000   -3.1875    0.0000 C   0  0  0  0  0  0  0  0  0  0  0  0
   -0.4708   -5.1000    0.0000 C   0  0  0  0  0  0  0  0  0  0  0  0
    5.0042    2.1208    0.0000 C   0  0  0  0  0  0  0  0  0  0  0  0
    2.3500   -0.2042    0.0000 C   0  0  0  0  0  0  0  0  0  0  0  0
    2.3500    0.5708    0.0000 C   0  0  0  0  0  0  0  0  0  0  0  0
  2  9  1  0  0  0  0
  3  2  2  0  0  0  0
  4  8  1  0  0  0  0
  5  1  1  0  0  0  0
  6 15  1  0  0  0  0
  7  3  1  0  0  0  0
  8  1  1  0  0  0  0
  9  6  1  0  0  0  0
 10 13  1  0  0  0  0
 11  2  1  0  0  0  0
 12  5  2  0  0  0  0
 13 11  2  0  0  0  0
 14 16  1  0  0  0  0
 15 17  1  0  0  0  0
 16  4  1  0  0  0  0
 17  4  1  0  0  0  0
 18  5  1  0  0  0  0
 19  1  2  0  0  0  0
 20 10  1  0  0  0  0
 21 12  1  0  0  0  0
 22  3  1  0  0  0  0
 23  7  1  0  0  0  0
 24 19  1  0  0  0  0
 25 24  2  0  0  0  0
 26 18  1  0  0  0  0
 27 21  1  0  0  0  0
 28 20  1  0  0  0  0
 29 22  2  0  0  0  0
 30 29  1  0  0  0  0
 25 12  1  0  0  0  0
 14  6  1  0  0  0  0
  7 10  2  0  0  0  0
 23 30  2  0  0  0  0
M  END
>  <ID> (5865835)
5865835

>  <Supplier> (5865835)
ChemBridge

>  <clogP> (5865835)
4.920000000000000e+000

>  <RB> (5865835)
4

>  <tPSA> (5865835)
3.417000000000000e+001

>  <Hacc> (5865835)
5

>  <Hdon> (5865835)
0

>  <LogSw> (5865835)
-5.356999999999998e+000

>  <Group> (5865835)
2

>  <Core> (5865835)
164

$$$$
5865838
  -ISIS-  03310818232D

 27 29  0  0  0  0  0  0  0  0999 V2000
    4.3667   -0.5875    0.0000 C   0  0  0  0  0  0  0  0  0  0  0  0
    5.0292    0.5500    0.0000 C   0  0  0  0  0  0  0  0  0  0  0  0
    5.0500   -0.2042    0.0000 C   0  0  0  0  0  0  0  0  0  0  0  0
    3.6500   -1.8292    0.0000 N   0  0  3  0  0  0  0  0  0  0  0  0
    2.2375   -2.7000    0.0000 N   0  0  3  0  0  0  0  0  0  0  0  0
    1.5167   -3.9375    0.0000 C   0  0  0  0  0  0  0  0  0  0  0  0
    3.7042   -0.2042    0.0000 C   0  0  0  0  0  0  0  0  0  0  0  0
    4.3667    0.9208    0.0000 C   0  0  0  0  0  0  0  0  0  0  0  0
    3.7042    0.5625    0.0000 C   0  0  0  0  0  0  0  0  0  0  0  0
    4.3667   -1.4167    0.0000 C   0  0  0  0  0  0  0  0  0  0  0  0
    1.5167   -3.1042    0.0000 C   0  0  0  0  0  0  0  0  0  0  0  0
    0.8500   -4.3167    0.0000 C   0  0  0  0  0  0  0  0  0  0  0  0
    3.6667   -2.6500    0.0000 C   0  0  0  0  0  0  0  0  0  0  0  0
    2.9167   -1.4375    0.0000 C   0  0  0  0  0  0  0  0  0  0  0  0
    2.9667   -3.0875    0.0000 C   0  0  0  0  0  0  0  0  0  0  0  0
    2.2042   -1.8667    0.0000 C   0  0  0  0  0  0  0  0  0  0  0  0
    0.2000   -3.9375    0.0000 Cl  0  0  0  0  0  0  0  0  0  0  0  0
    5.7292   -0.5792    0.0000 O   0  0  0  0  0  0  0  0  0  0  0  0
    4.3542    1.7208    0.0000 O   0  0  0  0  0  0  0  0  0  0  0  0
    3.0375    0.9500    0.0000 O   0  0  0  0  0  0  0  0  0  0  0  0
    2.1917   -4.3167    0.0000 C   0  0  0  0  0  0  0  0  0  0  0  0
    0.8500   -5.1000    0.0000 C   0  0  0  0  0  0  0  0  0  0  0  0
    5.0375    2.1125    0.0000 C   0  0  0  0  0  0  0  0  0  0  0  0
    5.7500   -1.3167    0.0000 C   0  0  0  0  0  0  0  0  0  0  0  0
    2.3792    0.5708    0.0000 C   0  0  0  0  0  0  0  0  0  0  0  0
    2.1917   -5.1000    0.0000 C   0  0  0  0  0  0  0  0  0  0  0  0
    1.5167   -5.4792    0.0000 C   0  0  0  0  0  0  0  0  0  0  0  0
  2  3  2  0  0  0  0
  3  1  1  0  0  0  0
  4 10  1  0  0  0  0
  5 16  1  0  0  0  0
  6 11  1  0  0  0  0
  7  1  2  0  0  0  0
  8  9  2  0  0  0  0
  9  7  1  0  0  0  0
 10  1  1  0  0  0  0
 11  5  1  0  0  0  0
 12  6  1  0  0  0  0
 13  4  1  0  0  0  0
 14  4  1  0  0  0  0
 15 13  1  0  0  0  0
 16 14  1  0  0  0  0
 17 12  1  0  0  0  0
 18  3  1  0  0  0  0
 19  8  1  0  0  0  0
 20  9  1  0  0  0  0
 21  6  2  0  0  0  0
 22 12  2  0  0  0  0
 23 19  1  0  0  0  0
 24 18  1  0  0  0  0
 25 20  1  0  0  0  0
 26 21  1  0  0  0  0
 27 26  2  0  0  0  0
  8  2  1  0  0  0  0
 15  5  1  0  0  0  0
 27 22  1  0  0  0  0
M  END
>  <ID> (5865838)
5865838

>  <Supplier> (5865838)
ChemBridge

>  <clogP> (5865838)
4.520000000000000e+000

>  <RB> (5865838)
4

>  <tPSA> (5865838)
3.417000000000000e+001

>  <Hacc> (5865838)
5

>  <Hdon> (5865838)
0

>  <LogSw> (5865838)
-4.902000000000000e+000

>  <Group> (5865838)
1

>  <Core> (5865838)
164

$$$$
6995957
  -ISIS-  03310818252D

 22 23  0  0  0  0  0  0  0  0999 V2000
    1.5542   -1.6292    0.0000 C   0  0  0  0  0  0  0  0  0  0  0  0
    1.9792   -2.3417    0.0000 C   0  0  0  0  0  0  0  0  0  0  0  0
    1.9542   -0.9042    0.0000 C   0  0  0  0  0  0  0  0  0  0  0  0
    2.7875   -0.8917    0.0000 N   0  0  3  0  0  0  0  0  0  0  0  0
    2.8042   -2.3292    0.0000 N   0  0  0  0  0  0  0  0  0  0  0  0
    1.4292   -2.9667    0.0000 S   0  0  0  0  0  0  0  0  0  0  0  0
    0.7417   -1.8167    0.0000 C   0  0  0  0  0  0  0  0  0  0  0  0
    3.2042   -1.6167    0.0000 C   0  0  0  0  0  0  0  0  0  0  0  0
    0.6667   -2.6417    0.0000 C   0  0  0  0  0  0  0  0  0  0  0  0
    3.1917   -0.1792    0.0000 C   0  0  3  0  0  0  0  0  0  0  0  0
    4.0167   -0.1667    0.0000 C   0  0  0  0  0  0  0  0  0  0  0  0
    1.5292   -0.2042    0.0000 O   0  0  0  0  0  0  0  0  0  0  0  0
    4.4375   -0.8792    0.0000 O   0  0  0  0  0  0  0  0  0  0  0  0
    4.4250    0.5458    0.0000 O   0  0  0  0  0  0  0  0  0  0  0  0
    5.2625   -0.8750    0.0000 C   0  0  0  0  0  0  0  0  0  0  0  0
    0.0667   -1.3417    0.0000 C   0  0  0  0  0  0  0  0  0  0  0  0
   -0.0833   -3.0000    0.0000 C   0  0  0  0  0  0  0  0  0  0  0  0
    2.7750    0.5333    0.0000 C   0  0  0  0  0  0  0  0  0  0  0  0
    5.6667   -0.1542    0.0000 C   0  0  3  0  0  0  0  0  0  0  0  0
    3.1792    1.2500    0.0000 C   0  0  0  0  0  0  0  0  0  0  0  0
    6.4917   -0.1500    0.0000 C   0  0  0  0  0  0  0  0  0  0  0  0
    5.2500    0.5583    0.0000 C   0  0  0  0  0  0  0  0  0  0  0  0
  2  1  2  0  0  0  0
  3  1  1  0  0  0  0
  4  3  1  0  0  0  0
  5  2  1  0  0  0  0
  6  2  1  0  0  0  0
  7  1  1  0  0  0  0
  8  4  1  0  0  0  0
  9  7  2  0  0  0  0
 10  4  1  0  0  0  0
 11 10  1  0  0  0  0
 12  3  2  0  0  0  0
 13 11  1  0  0  0  0
 14 11  2  0  0  0  0
 15 13  1  0  0  0  0
 16  7  1  0  0  0  0
 17  9  1  0  0  0  0
 18 10  1  0  0  0  0
 19 15  1  0  0  0  0
 20 18  1  0  0  0  0
 21 19  1  0  0  0  0
 22 19  1  0  0  0  0
  9  6  1  0  0  0  0
  5  8  2  0  0  0  0
M  END
>  <ID> (6995957)
6995957

>  <Supplier> (6995957)
ChemBridge

>  <clogP> (6995957)
3.960000000000000e+000

>  <RB> (6995957)
4

>  <tPSA> (6995957)
6.119000000000000e+001

>  <Hacc> (6995957)
4

>  <Hdon> (6995957)
0

>  <LogSw> (6995957)
-4.933000000000002e+000

>  <Group> (6995957)
2

>  <Core> (6995957)
062

$$$$
6374367
  -ISIS-  03310818232D

 26 28  0  0  0  0  0  0  0  0999 V2000
    4.6167   -1.1542    0.0000 N   0  0  0  0  0  0  0  0  0  0  0  0
    4.3875   -1.8667    0.0000 C   0  0  0  0  0  0  0  0  0  0  0  0
    5.6000   -1.8667    0.0000 C   0  0  0  0  0  0  0  0  0  0  0  0
    5.3667   -1.1542    0.0000 C   0  0  0  0  0  0  0  0  0  0  0  0
    4.9917   -2.3125    0.0000 S   0  0  0  0  0  0  0  0  0  0  0  0
    6.3125   -2.1000    0.0000 C   0  0  0  0  0  0  0  0  0  0  0  0
    6.4667   -2.8292    0.0000 C   0  0  0  0  0  0  0  0  0  0  0  0
    3.6750   -2.1000    0.0000 S   0  0  0  0  0  0  0  0  0  0  0  0
    5.8042   -0.5500    0.0000 O   0  0  0  0  0  0  0  0  0  0  0  0
    7.1792   -3.0667    0.0000 C   0  0  0  0  0  0  0  0  0  0  0  0
   10.2792   -2.0292    0.0000 C   0  0  0  0  0  0  0  0  0  0  0  0
   10.6917   -0.7917    0.0000 C   0  0  0  0  0  0  0  0  0  0  0  0
   11.5542   -1.7667    0.0000 C   0  0  0  0  0  0  0  0  0  0  0  0
   10.1292   -1.2917    0.0000 C   0  0  0  0  0  0  0  0  0  0  0  0
   10.9917   -2.2625    0.0000 C   0  0  0  0  0  0  0  0  0  0  0  0
   11.4042   -1.0292    0.0000 C   0  0  0  0  0  0  0  0  0  0  0  0
    7.7417   -2.5667    0.0000 O   0  0  0  0  0  0  0  0  0  0  0  0
    9.7250   -2.5292    0.0000 O   0  0  0  0  0  0  0  0  0  0  0  0
    5.9125   -3.3292    0.0000 C   0  0  0  0  0  0  0  0  0  0  0  0
    7.3417   -3.8042    0.0000 C   0  0  0  0  0  0  0  0  0  0  0  0
   10.5417   -0.0542    0.0000 C   0  0  0  0  0  0  0  0  0  0  0  0
   12.2667   -2.0042    0.0000 C   0  0  0  0  0  0  0  0  0  0  0  0
    8.4542   -2.8000    0.0000 C   0  0  0  0  0  0  0  0  0  0  0  0
    9.0125   -2.3000    0.0000 C   0  0  0  0  0  0  0  0  0  0  0  0
    6.0667   -4.0667    0.0000 C   0  0  0  0  0  0  0  0  0  0  0  0
    6.7750   -4.3042    0.0000 C   0  0  0  0  0  0  0  0  0  0  0  0
  2  1  1  0  0  0  0
  3  4  1  0  0  0  0
  4  1  1  0  0  0  0
  5  2  1  0  0  0  0
  6  3  2  0  0  0  0
  7  6  1  0  0  0  0
  8  2  2  0  0  0  0
  9  4  2  0  0  0  0
 10  7  2  0  0  0  0
 11 18  1  0  0  0  0
 12 14  2  0  0  0  0
 13 15  1  0  0  0  0
 14 11  1  0  0  0  0
 15 11  2  0  0  0  0
 16 13  2  0  0  0  0
 17 10  1  0  0  0  0
 18 24  1  0  0  0  0
 19  7  1  0  0  0  0
 20 10  1  0  0  0  0
 21 12  1  0  0  0  0
 22 13  1  0  0  0  0
 23 17  1  0  0  0  0
 24 23  1  0  0  0  0
 25 19  2  0  0  0  0
 26 25  1  0  0  0  0
  5  3  1  0  0  0  0
 26 20  2  0  0  0  0
 16 12  1  0  0  0  0
M  END
>  <ID> (6374367)
6374367

>  <Supplier> (6374367)
ChemBridge

>  <clogP> (6374367)
4.480000000000000e+000

>  <RB> (6374367)
6

>  <tPSA> (6374367)
4.756000000000000e+001

>  <Hacc> (6374367)
3

>  <Hdon> (6374367)
1

>  <LogSw> (6374367)
-5.836000000000000e+000

>  <Group> (6374367)
1

>  <Core> (6374367)
001

$$$$
6374364
  -ISIS-  03310818232D

 23 25  0  0  0  0  0  0  0  0999 V2000
    2.5042    0.3250    0.0000 C   0  0  0  0  0  0  0  0  0  0  0  0
    3.2250    0.7333    0.0000 N   0  0  0  0  0  0  0  0  0  0  0  0
    5.8125   -0.7792    0.0000 N   0  0  0  0  0  0  0  0  0  0  0  0
    2.5000   -0.5000    0.0000 O   0  0  0  0  0  0  0  0  0  0  0  0
    1.8542    0.7000    0.0000 C   0  0  0  0  0  0  0  0  0  0  0  0
    3.8667    0.3583    0.0000 C   0  0  0  0  0  0  0  0  0  0  0  0
    5.1667   -0.4000    0.0000 C   0  0  0  0  0  0  0  0  0  0  0  0
    6.4667   -0.4042    0.0000 C   0  0  0  0  0  0  0  0  0  0  0  0
    5.1667    0.3500    0.0000 C   0  0  0  0  0  0  0  0  0  0  0  0
    4.5167    0.7333    0.0000 C   0  0  0  0  0  0  0  0  0  0  0  0
    3.8667   -0.3917    0.0000 C   0  0  0  0  0  0  0  0  0  0  0  0
    4.5125   -0.7667    0.0000 C   0  0  0  0  0  0  0  0  0  0  0  0
    1.2042    0.3250    0.0000 C   0  0  0  0  0  0  0  0  0  0  0  0
    7.1125   -0.7917    0.0000 C   0  0  0  0  0  0  0  0  0  0  0  0
    6.4667    0.3458    0.0000 C   0  0  0  0  0  0  0  0  0  0  0  0
    1.2042   -0.4250    0.0000 C   0  0  0  0  0  0  0  0  0  0  0  0
    0.5542    0.7000    0.0000 C   0  0  0  0  0  0  0  0  0  0  0  0
   -0.0958    0.3250    0.0000 C   0  0  0  0  0  0  0  0  0  0  0  0
    7.7667   -0.4167    0.0000 C   0  0  0  0  0  0  0  0  0  0  0  0
    7.1250    0.7125    0.0000 C   0  0  0  0  0  0  0  0  0  0  0  0
    0.5542   -0.8000    0.0000 C   0  0  0  0  0  0  0  0  0  0  0  0
   -0.0958   -0.4250    0.0000 C   0  0  0  0  0  0  0  0  0  0  0  0
    7.7667    0.3333    0.0000 C   0  0  0  0  0  0  0  0  0  0  0  0
  2  1  1  0  0  0  0
  3  7  1  0  0  0  0
  4  1  2  0  0  0  0
  5  1  1  0  0  0  0
  6  2  1  0  0  0  0
  7 12  2  0  0  0  0
  8  3  1  0  0  0  0
  9 10  2  0  0  0  0
 10  6  1  0  0  0  0
 11  6  2  0  0  0  0
 12 11  1  0  0  0  0
 13  5  1  0  0  0  0
 14  8  1  0  0  0  0
 15  8  2  0  0  0  0
 16 13  2  0  0  0  0
 17 13  1  0  0  0  0
 18 17  2  0  0  0  0
 19 14  2  0  0  0  0
 20 15  1  0  0  0  0
 21 16  1  0  0  0  0
 22 18  1  0  0  0  0
 23 20  2  0  0  0  0
  9  7  1  0  0  0  0
 21 22  2  0  0  0  0
 23 19  1  0  0  0  0
M  END
>  <ID> (6374364)
6374364

>  <Supplier> (6374364)
ChemBridge

>  <clogP> (6374364)
4.170000000000000e+000

>  <RB> (6374364)
5

>  <tPSA> (6374364)
4.113000000000000e+001

>  <Hacc> (6374364)
1

>  <Hdon> (6374364)
2

>  <LogSw> (6374364)
-4.966000000000000e+000

>  <Group> (6374364)
3

>  <Core> (6374364)
513

$$$$
5323501
  -ISIS-  03310818212D

 34 37  0  0  0  0  0  0  0  0999 V2000
   -0.6333    1.0125    0.0000 C   0  0  0  0  0  0  0  0  0  0  0  0
   -0.6333    0.3000    0.0000 C   0  0  0  0  0  0  0  0  0  0  0  0
    0.5792    0.3000    0.0000 N   0  0  0  0  0  0  0  0  0  0  0  0
   -1.8333    1.0125    0.0000 N   0  0  0  0  0  0  0  0  0  0  0  0
   -0.0333   -0.0292    0.0000 C   0  0  0  0  0  0  0  0  0  0  0  0
   -1.2208    1.3500    0.0000 C   0  0  0  0  0  0  0  0  0  0  0  0
   -1.8458    0.3000    0.0000 C   0  0  0  0  0  0  0  0  0  0  0  0
    1.1792   -0.0542    0.0000 C   0  0  0  0  0  0  0  0  0  0  0  0
   -2.4333   -0.0292    0.0000 C   0  0  0  0  0  0  0  0  0  0  0  0
    1.7875    0.3000    0.0000 C   0  0  0  0  0  0  0  0  0  0  0  0
   -3.6458   -0.7375    0.0000 C   0  0  0  0  0  0  0  0  0  0  0  0
    3.0167    0.9958    0.0000 C   0  0  0  0  0  0  0  0  0  0  0  0
    1.8042    1.0125    0.0000 C   0  0  0  0  0  0  0  0  0  0  0  0
   -3.0458    0.3208    0.0000 C   0  0  0  0  0  0  0  0  0  0  0  0
    2.3792   -0.0542    0.0000 C   0  0  0  0  0  0  0  0  0  0  0  0
   -2.4333   -0.7375    0.0000 C   0  0  0  0  0  0  0  0  0  0  0  0
   -3.6458   -0.0292    0.0000 C   0  0  0  0  0  0  0  0  0  0  0  0
    3.0000    0.2958    0.0000 C   0  0  0  0  0  0  0  0  0  0  0  0
   -3.0458   -1.0875    0.0000 C   0  0  0  0  0  0  0  0  0  0  0  0
    2.3792    1.3500    0.0000 C   0  0  0  0  0  0  0  0  0  0  0  0
   -4.2708   -1.0875    0.0000 O   0  0  0  0  0  0  0  0  0  0  0  0
    3.6375    1.3208    0.0000 O   0  0  0  0  0  0  0  0  0  0  0  0
   -0.0125    1.3500    0.0000 C   0  0  0  0  0  0  0  0  0  0  0  0
   -1.2458   -0.0542    0.0000 C   0  0  0  0  0  0  0  0  0  0  0  0
   -0.0333   -0.7375    0.0000 C   0  0  0  0  0  0  0  0  0  0  0  0
   -1.2208    2.0458    0.0000 C   0  0  0  0  0  0  0  0  0  0  0  0
   -4.2708   -1.7875    0.0000 C   0  0  0  0  0  0  0  0  0  0  0  0
    4.2292    0.9458    0.0000 C   0  0  0  0  0  0  0  0  0  0  0  0
   -0.0125    2.0500    0.0000 C   0  0  0  0  0  0  0  0  0  0  0  0
   -1.2458   -0.7375    0.0000 C   0  0  0  0  0  0  0  0  0  0  0  0
   -4.8500   -2.1292    0.0000 C   0  0  0  0  0  0  0  0  0  0  0  0
    4.8292    1.2708    0.0000 C   0  0  0  0  0  0  0  0  0  0  0  0
   -0.6333    2.3833    0.0000 C   0  0  0  0  0  0  0  0  0  0  0  0
   -0.6333   -1.0875    0.0000 C   0  0  0  0  0  0  0  0  0  0  0  0
  2  1  1  0  0  0  0
  3  5  1  0  0  0  0
  4  6  1  0  0  0  0
  5  2  1  0  0  0  0
  6  1  1  0  0  0  0
  7  4  2  0  0  0  0
  8  3  2  0  0  0  0
  9  7  1  0  0  0  0
 10  8  1  0  0  0  0
 11 19  2  0  0  0  0
 12 18  1  0  0  0  0
 13 10  2  0  0  0  0
 14  9  1  0  0  0  0
 15 10  1  0  0  0  0
 16  9  2  0  0  0  0
 17 14  2  0  0  0  0
 18 15  2  0  0  0  0
 19 16  1  0  0  0  0
 20 13  1  0  0  0  0
 21 11  1  0  0  0  0
 22 12  1  0  0  0  0
 23  1  2  0  0  0  0
 24  2  2  0  0  0  0
 25  5  2  0  0  0  0
 26  6  2  0  0  0  0
 27 21  1  0  0  0  0
 28 22  1  0  0  0  0
 29 23  1  0  0  0  0
 30 24  1  0  0  0  0
 31 27  1  0  0  0  0
 32 28  1  0  0  0  0
 33 29  2  0  0  0  0
 34 30  2  0  0  0  0
 26 33  1  0  0  0  0
 25 34  1  0  0  0  0
 11 17  1  0  0  0  0
 20 12  2  0  0  0  0
M  END
>  <ID> (5323501)
5323501

>  <Supplier> (5323501)
ChemBridge

>  <clogP> (5323501)
6.340000000000000e+000

>  <RB> (5323501)
5

>  <tPSA> (5323501)
4.317999999999998e+001

>  <Hacc> (5323501)
4

>  <Hdon> (5323501)
0

>  <LogSw> (5323501)
-7.884000000000000e+000

>  <Group> (5323501)
1

>  <Core> (5323501)
464

$$$$
5787960
  -ISIS-  03310818222D

 23 24  0  0  0  0  0  0  0  0999 V2000
    3.2292   -2.8292    0.0000 N   0  0  0  0  0  0  0  0  0  0  0  0
    4.4292   -3.5042    0.0000 C   0  0  3  0  0  0  0  0  0  0  0  0
    3.2375   -3.5167    0.0000 N   0  0  0  0  0  0  0  0  0  0  0  0
    3.8375   -3.8542    0.0000 C   0  0  0  0  0  0  0  0  0  0  0  0
    3.8250   -2.4750    0.0000 C   0  0  0  0  0  0  0  0  0  0  0  0
    5.1000   -3.6542    0.0000 C   0  0  0  0  0  0  0  0  0  0  0  0
    7.3042   -4.3417    0.0000 N   0  0  0  0  0  0  0  0  0  0  0  0
    5.8167   -4.6125    0.0000 C   0  0  0  0  0  0  0  0  0  0  0  0
    8.7625   -4.7042    0.0000 C   0  0  0  0  0  0  0  0  0  0  0  0
    8.5542   -3.9875    0.0000 C   0  0  0  0  0  0  0  0  0  0  0  0
    3.8417   -4.5417    0.0000 O   0  0  0  0  0  0  0  0  0  0  0  0
    6.4917   -4.1417    0.0000 N   0  0  0  0  0  0  0  0  0  0  0  0
    5.9250   -5.2917    0.0000 O   0  0  0  0  0  0  0  0  0  0  0  0
    7.8292   -3.8042    0.0000 C   0  0  0  0  0  0  0  0  0  0  0  0
    5.1792   -4.3417    0.0000 C   0  0  0  0  0  0  0  0  0  0  0  0
    9.4875   -4.8875    0.0000 C   0  0  0  0  0  0  0  0  0  0  0  0
    4.0000   -1.8125    0.0000 C   0  0  0  0  0  0  0  0  0  0  0  0
    9.0750   -3.4500    0.0000 C   0  0  0  0  0  0  0  0  0  0  0  0
    9.6917   -5.6042    0.0000 C   0  0  0  0  0  0  0  0  0  0  0  0
   10.0042   -4.3417    0.0000 C   0  0  0  0  0  0  0  0  0  0  0  0
   10.4250   -5.7875    0.0000 C   0  0  0  0  0  0  0  0  0  0  0  0
   10.7375   -4.5292    0.0000 C   0  0  0  0  0  0  0  0  0  0  0  0
   10.9500   -5.2417    0.0000 C   0  0  0  0  0  0  0  0  0  0  0  0
  2  5  1  0  0  0  0
  3  1  1  0  0  0  0
  4  3  1  0  0  0  0
  5  1  2  0  0  0  0
  6  2  1  0  0  0  0
  7 12  1  0  0  0  0
  8 15  1  0  0  0  0
  9 10  2  0  0  0  0
 10 14  1  0  0  0  0
 11  4  2  0  0  0  0
 12  8  1  0  0  0  0
 13  8  2  0  0  0  0
 14  7  2  0  0  0  0
 15  6  1  0  0  0  0
 16  9  1  0  0  0  0
 17  5  1  0  0  0  0
 18 10  1  0  0  0  0
 19 16  1  0  0  0  0
 20 16  2  0  0  0  0
 21 19  2  0  0  0  0
 22 20  1  0  0  0  0
 23 22  2  0  0  0  0
  4  2  1  0  0  0  0
 21 23  1  0  0  0  0
M  END
>  <ID> (5787960)
5787960

>  <Supplier> (5787960)
ChemBridge

>  <clogP> (5787960)
4.900000000000000e+000

>  <RB> (5787960)
6

>  <tPSA> (5787960)
8.292000000000000e+001

>  <Hacc> (5787960)
4

>  <Hdon> (5787960)
2

>  <LogSw> (5787960)
-5.662999999999998e+000

>  <Group> (5787960)
2

>  <Core> (5787960)
216

$$$$
5323503
  -ISIS-  03310818212D

 19 20  0  0  0  0  0  0  0  0999 V2000
    2.5875   -1.1000    0.0000 N   0  3  0  0  0  0  0  0  0  0  0  0
    3.2375    0.0708    0.0000 C   0  0  0  0  0  0  0  0  0  0  0  0
    2.5542    1.2125    0.0000 C   0  0  0  0  0  0  0  0  0  0  0  0
    0.6042    0.0125    0.0000 N   0  0  0  0  0  0  0  0  0  0  0  0
    1.2292    1.1833    0.0000 C   0  0  0  0  0  0  0  0  0  0  0  0
   -2.7458    1.0958    0.0000 C   0  0  0  0  0  0  0  0  0  0  0  0
    1.2542   -1.1000    0.0000 O   0  5  0  0  0  0  0  0  0  0  0  0
   -1.4125    1.0958    0.0000 C   0  0  0  0  0  0  0  0  0  0  0  0
    3.2875   -2.2292    0.0000 O   0  0  0  0  0  0  0  0  0  0  0  0
   -3.3958   -0.0667    0.0000 C   0  0  0  0  0  0  0  0  0  0  0  0
   -0.7208   -0.0042    0.0000 C   0  0  0  0  0  0  0  0  0  0  0  0
   -2.6958   -1.2167    0.0000 C   0  0  0  0  0  0  0  0  0  0  0  0
   -3.4625    2.2333    0.0000 F   0  0  0  0  0  0  0  0  0  0  0  0
   -1.3833   -1.1875    0.0000 C   0  0  0  0  0  0  0  0  0  0  0  0
    4.5667    0.1000    0.0000 C   0  0  0  0  0  0  0  0  0  0  0  0
    3.2000    2.3833    0.0000 C   0  0  0  0  0  0  0  0  0  0  0  0
   -4.7083   -0.0917    0.0000 C   0  0  0  0  0  0  0  0  0  0  0  0
    5.2042    1.2458    0.0000 C   0  0  0  0  0  0  0  0  0  0  0  0
    4.5042    2.4125    0.0000 C   0  0  0  0  0  0  0  0  0  0  0  0
  2  1  1  0  0  0  0
  3  2  2  0  0  0  0
  4  5  2  0  0  0  0
  5  3  1  0  0  0  0
  6  8  2  0  0  0  0
  7  1  1  0  0  0  0
  8 11  1  0  0  0  0
  9  1  2  0  0  0  0
 10 12  2  0  0  0  0
 11  4  1  0  0  0  0
 12 14  1  0  0  0  0
 13  6  1  0  0  0  0
 14 11  2  0  0  0  0
 15  2  1  0  0  0  0
 16  3  1  0  0  0  0
 17 10  1  0  0  0  0
 18 15  2  0  0  0  0
 19 18  1  0  0  0  0
 16 19  2  0  0  0  0
 10  6  1  0  0  0  0
M  CHG  2   1   1   7  -1
M  END
>  <ID> (5323503)
5323503

>  <Supplier> (5323503)
ChemBridge

>  <clogP> (5323503)
3.400000000000000e+000

>  <RB> (5323503)
2

>  <tPSA> (5323503)
5.550000000000000e+001

>  <Hacc> (5323503)
3

>  <Hdon> (5323503)
0

>  <LogSw> (5323503)
-4.378000000000000e+000

>  <Group> (5323503)
1

>  <Core> (5323503)
464

$$$$
5950591
  -ISIS-  03310818232D

 34 37  0  0  0  0  0  0  0  0999 V2000
    0.5542    1.8125    0.0000 C   0  0  0  0  0  0  0  0  0  0  0  0
    1.0167    0.3833    0.0000 N   0  0  3  0  0  0  0  0  0  0  0  0
    1.7792    0.9458    0.0000 C   0  0  0  0  0  0  0  0  0  0  0  0
    1.4875    1.8125    0.0000 C   0  0  0  0  0  0  0  0  0  0  0  0
    0.2792    0.9208    0.0000 C   0  0  3  0  0  0  0  0  0  0  0  0
   -0.6208    0.6833    0.0000 C   0  0  0  0  0  0  0  0  0  0  0  0
    2.5167   -2.5000    0.0000 N   0  3  0  0  0  0  0  0  0  0  0  0
    0.9792   -0.5500    0.0000 C   0  0  0  0  0  0  0  0  0  0  0  0
    0.0292    2.5833    0.0000 C   0  0  0  0  0  0  0  0  0  0  0  0
    1.7792   -1.0500    0.0000 C   0  0  0  0  0  0  0  0  0  0  0  0
    1.7375   -1.9875    0.0000 C   0  0  0  0  0  0  0  0  0  0  0  0
   -0.8625   -0.2292    0.0000 C   0  0  0  0  0  0  0  0  0  0  0  0
    2.6875    0.6625    0.0000 O   0  0  0  0  0  0  0  0  0  0  0  0
   -1.2833    1.3458    0.0000 C   0  0  0  0  0  0  0  0  0  0  0  0
    2.4542   -3.4292    0.0000 O   0  5  0  0  0  0  0  0  0  0  0  0
    3.3375   -2.0667    0.0000 O   0  0  0  0  0  0  0  0  0  0  0  0
    0.4292    3.4333    0.0000 O   0  0  0  0  0  0  0  0  0  0  0  0
   -0.8958    2.5000    0.0000 C   0  0  0  0  0  0  0  0  0  0  0  0
    2.0375    2.6125    0.0000 O   0  0  0  0  0  0  0  0  0  0  0  0
   -1.7500   -0.5000    0.0000 C   0  0  0  0  0  0  0  0  0  0  0  0
   -2.1958    1.0708    0.0000 C   0  0  0  0  0  0  0  0  0  0  0  0
   -2.4333    0.1958    0.0000 C   0  0  0  0  0  0  0  0  0  0  0  0
    0.1667   -0.9875    0.0000 C   0  0  0  0  0  0  0  0  0  0  0  0
   -0.2000   -0.8792    0.0000 O   0  0  0  0  0  0  0  0  0  0  0  0
   -2.8833    1.7000    0.0000 O   0  0  0  0  0  0  0  0  0  0  0  0
    0.9167   -2.4292    0.0000 C   0  0  0  0  0  0  0  0  0  0  0  0
    0.1500   -1.9167    0.0000 C   0  0  0  0  0  0  0  0  0  0  0  0
   -1.2958    1.6625    0.0000 C   0  0  0  0  0  0  0  0  0  0  0  0
   -1.4208    3.2708    0.0000 C   0  0  0  0  0  0  0  0  0  0  0  0
   -0.4208   -1.7667    0.0000 C   0  0  0  0  0  0  0  0  0  0  0  0
   -3.7625    1.4333    0.0000 C   0  0  0  0  0  0  0  0  0  0  0  0
   -2.2333    1.5958    0.0000 C   0  0  0  0  0  0  0  0  0  0  0  0
   -2.3500    3.2083    0.0000 C   0  0  0  0  0  0  0  0  0  0  0  0
   -2.7333    2.3458    0.0000 C   0  0  0  0  0  0  0  0  0  0  0  0
  2  5  1  0  0  0  0
  3  4  1  0  0  0  0
  4  1  2  0  0  0  0
  5  1  1  0  0  0  0
  6  5  1  0  0  0  0
  7 11  1  0  0  0  0
  8  2  1  0  0  0  0
  9  1  1  0  0  0  0
 10  8  1  0  0  0  0
 11 10  2  0  0  0  0
 12  6  1  0  0  0  0
 13  3  2  0  0  0  0
 14  6  2  0  0  0  0
 15  7  1  0  0  0  0
 16  7  2  0  0  0  0
 17  9  2  0  0  0  0
 18  9  1  0  0  0  0
 19  4  1  0  0  0  0
 20 12  2  0  0  0  0
 21 14  1  0  0  0  0
 22 21  2  0  0  0  0
 23  8  2  0  0  0  0
 24 12  1  0  0  0  0
 25 21  1  0  0  0  0
 26 27  2  0  0  0  0
 27 23  1  0  0  0  0
 28 18  1  0  0  0  0
 29 18  2  0  0  0  0
 30 24  1  0  0  0  0
 31 25  1  0  0  0  0
 32 28  2  0  0  0  0
 33 29  1  0  0  0  0
 34 33  2  0  0  0  0
  2  3  1  0  0  0  0
 32 34  1  0  0  0  0
 20 22  1  0  0  0  0
 11 26  1  0  0  0  0
M  CHG  2   7   1  15  -1
M  END
>  <ID> (5950591)
5950591

>  <Supplier> (5950591)
ChemBridge

>  <clogP> (5950591)
5.030000000000000e+000

>  <RB> (5950591)
4

>  <tPSA> (5950591)
1.192100000000000e+002

>  <Hacc> (5950591)
7

>  <Hdon> (5950591)
1

>  <LogSw> (5950591)
-7.242000000000000e+000

>  <Group> (5950591)
2

>  <Core> (5950591)
095

$$$$
9154855
  -ISIS-  03310818292D

 31 35  0  0  0  0  0  0  0  0999 V2000
    8.1375    3.2458    0.0000 C   0  0  0  0  0  0  0  0  0  0  0  0
    6.9500    2.9958    0.0000 N   0  0  3  0  0  0  0  0  0  0  0  0
    8.0625    2.4958    0.0000 N   0  0  0  0  0  0  0  0  0  0  0  0
    7.3250    2.3458    0.0000 C   0  0  0  0  0  0  0  0  0  0  0  0
    5.8250    2.3458    0.0000 C   0  0  0  0  0  0  0  0  0  0  0  0
    7.4542    3.5458    0.0000 N   0  0  0  0  0  0  0  0  0  0  0  0
    6.2000    2.9958    0.0000 C   0  0  0  0  0  0  0  0  0  0  0  0
    5.0750    2.3458    0.0000 C   0  0  0  0  0  0  0  0  0  0  0  0
    6.9500    1.6958    0.0000 N   0  0  0  0  0  0  0  0  0  0  0  0
    8.7875    3.6208    0.0000 C   0  0  3  0  0  0  0  0  0  0  0  0
    5.8250    3.6458    0.0000 C   0  0  0  0  0  0  0  0  0  0  0  0
    4.7000    2.9958    0.0000 N   0  0  3  0  0  0  0  0  0  0  0  0
    6.2000    1.6958    0.0000 C   0  0  0  0  0  0  0  0  0  0  0  0
    1.6667    4.0125    0.0000 N   0  0  0  0  0  0  0  0  0  0  0  0
    5.0750    3.6458    0.0000 C   0  0  0  0  0  0  0  0  0  0  0  0
    2.3792    3.0333    0.0000 C   0  0  0  0  0  0  0  0  0  0  0  0
    2.8250    3.6458    0.0000 C   0  0  0  0  0  0  0  0  0  0  0  0
    2.3792    4.2417    0.0000 C   0  0  0  0  0  0  0  0  0  0  0  0
    1.6667    3.2708    0.0000 C   0  0  0  0  0  0  0  0  0  0  0  0
    4.7000    1.6958    0.0000 O   0  0  0  0  0  0  0  0  0  0  0  0
    3.9500    2.9958    0.0000 C   0  0  0  0  0  0  0  0  0  0  0  0
    2.5417    2.3000    0.0000 C   0  0  0  0  0  0  0  0  0  0  0  0
    3.5750    3.6458    0.0000 C   0  0  0  0  0  0  0  0  0  0  0  0
    8.5917    4.3375    0.0000 F   0  0  0  0  0  0  0  0  0  0  0  0
    9.1042    2.9375    0.0000 F   0  0  0  0  0  0  0  0  0  0  0  0
    9.4917    3.8750    0.0000 F   0  0  0  0  0  0  0  0  0  0  0  0
    1.1167    2.7708    0.0000 C   0  0  0  0  0  0  0  0  0  0  0  0
    1.9792    1.7958    0.0000 C   0  0  0  0  0  0  0  0  0  0  0  0
    1.2667    2.0333    0.0000 C   0  0  0  0  0  0  0  0  0  0  0  0
    2.1417    1.0625    0.0000 O   0  0  0  0  0  0  0  0  0  0  0  0
    1.5792    0.5625    0.0000 C   0  0  0  0  0  0  0  0  0  0  0  0
  2  6  1  0  0  0  0
  3  1  1  0  0  0  0
  4  3  2  0  0  0  0
  5  7  2  0  0  0  0
  6  1  2  0  0  0  0
  7  2  1  0  0  0  0
  8  5  1  0  0  0  0
  9  4  1  0  0  0  0
 10  1  1  0  0  0  0
 11  7  1  0  0  0  0
 12 15  1  0  0  0  0
 13  9  2  0  0  0  0
 14 18  1  0  0  0  0
 15 11  2  0  0  0  0
 16 17  1  0  0  0  0
 17 23  1  0  0  0  0
 18 17  2  0  0  0  0
 19 16  2  0  0  0  0
 20  8  2  0  0  0  0
 21 12  1  0  0  0  0
 22 16  1  0  0  0  0
 23 21  1  0  0  0  0
 24 10  1  0  0  0  0
 25 10  1  0  0  0  0
 26 10  1  0  0  0  0
 27 19  1  0  0  0  0
 28 22  2  0  0  0  0
 29 28  1  0  0  0  0
 30 28  1  0  0  0  0
 31 30  1  0  0  0  0
  2  4  1  0  0  0  0
  5 13  1  0  0  0  0
 12  8  1  0  0  0  0
 14 19  1  0  0  0  0
 27 29  2  0  0  0  0
M  END
>  <ID> (9154855)
9154855

>  <Supplier> (9154855)
ChemBridge

>  <clogP> (9154855)
2.516000000000000e+000

>  <RB> (9154855)
3

>  <tPSA> (9154855)
9.010000000000002e+001

>  <Hacc> (9154855)
5

>  <Hdon> (9154855)
1

>  <LogSw> (9154855)
-5.581000000000000e+000

>  <Group> (9154855)
2

$$$$
5787969
  -ISIS-  03310818222D

 20 21  0  0  0  0  0  0  0  0999 V2000
   -1.7708   -0.7375    0.0000 S   0  0  3  0  0  0  0  0  0  0  0  0
   -3.0500   -0.7500    0.0000 C   0  0  0  0  0  0  0  0  0  0  0  0
   -0.5458   -0.7500    0.0000 N   0  0  0  0  0  0  0  0  0  0  0  0
   -3.6708    0.3708    0.0000 C   0  0  0  0  0  0  0  0  0  0  0  0
   -1.7958   -2.0000    0.0000 O   0  0  0  0  0  0  0  0  0  0  0  0
   -1.7708    0.4958    0.0000 O   0  0  0  0  0  0  0  0  0  0  0  0
   -3.6958   -1.8167    0.0000 C   0  0  0  0  0  0  0  0  0  0  0  0
    0.0875    0.3333    0.0000 C   0  0  0  0  0  0  0  0  0  0  0  0
    1.9875    1.3958    0.0000 O   0  0  0  0  0  0  0  0  0  0  0  0
   -4.9583   -1.8167    0.0000 C   0  0  0  0  0  0  0  0  0  0  0  0
   -4.9208    0.4000    0.0000 C   0  0  0  0  0  0  0  0  0  0  0  0
    1.3375    0.3208    0.0000 C   0  0  3  0  0  0  0  0  0  0  0  0
   -5.5708   -0.7042    0.0000 C   0  0  0  0  0  0  0  0  0  0  0  0
   -3.0500   -2.9292    0.0000 O   0  0  0  0  0  0  0  0  0  0  0  0
   -5.5500    1.5000    0.0000 O   0  0  0  0  0  0  0  0  0  0  0  0
    3.2042    1.1000    0.0000 C   0  0  0  0  0  0  0  0  0  0  0  0
   -1.7833   -2.9292    0.0000 C   0  0  0  0  0  0  0  0  0  0  0  0
   -4.8958    2.5625    0.0000 C   0  0  0  0  0  0  0  0  0  0  0  0
    2.1667   -0.6500    0.0000 C   0  0  0  0  0  0  0  0  0  0  0  0
    3.3042   -0.1375    0.0000 C   0  0  0  0  0  0  0  0  0  0  0  0
  2  1  1  0  0  0  0
  3  1  1  0  0  0  0
  4  2  2  0  0  0  0
  5  1  2  0  0  0  0
  6  1  2  0  0  0  0
  7  2  1  0  0  0  0
  8  3  1  0  0  0  0
  9 12  1  0  0  0  0
 10  7  2  0  0  0  0
 11  4  1  0  0  0  0
 12  8  1  0  0  0  0
 13 10  1  0  0  0  0
 14  7  1  0  0  0  0
 15 11  1  0  0  0  0
 16  9  1  0  0  0  0
 17 14  1  0  0  0  0
 18 15  1  0  0  0  0
 19 12  1  0  0  0  0
 20 19  1  0  0  0  0
 11 13  2  0  0  0  0
 20 16  1  0  0  0  0
M  END
>  <ID> (5787969)
5787969

>  <Supplier> (5787969)
ChemBridge

>  <clogP> (5787969)
1.380000000000000e+000

>  <RB> (5787969)
3

>  <tPSA> (5787969)
7.386000000000000e+001

>  <Hacc> (5787969)
6

>  <Hdon> (5787969)
1

>  <LogSw> (5787969)
-2.576000000000000e+000

>  <Group> (5787969)
3

$$$$
7677031
  -ISIS-  03310818262D

 30 32  0  0  0  0  0  0  0  0999 V2000
    5.4417   -7.0292    0.0000 S   0  0  3  0  0  0  0  0  0  0  0  0
    5.4417   -7.8542    0.0000 N   0  0  3  0  0  0  0  0  0  0  0  0
    6.1542   -8.2667    0.0000 C   0  0  0  0  0  0  0  0  0  0  0  0
    6.8750   -7.8625    0.0000 C   0  0  0  0  0  0  0  0  0  0  0  0
    5.4417   -6.2000    0.0000 C   0  0  0  0  0  0  0  0  0  0  0  0
    6.2750   -7.0292    0.0000 O   0  0  0  0  0  0  0  0  0  0  0  0
    4.6167   -7.0250    0.0000 O   0  0  0  0  0  0  0  0  0  0  0  0
    7.5917   -8.2792    0.0000 N   0  0  0  0  0  0  0  0  0  0  0  0
    6.8792   -7.0292    0.0000 O   0  0  0  0  0  0  0  0  0  0  0  0
    4.7250   -5.7875    0.0000 C   0  0  0  0  0  0  0  0  0  0  0  0
    6.1542   -5.7792    0.0000 C   0  0  0  0  0  0  0  0  0  0  0  0
    8.3042   -7.8542    0.0000 C   0  0  0  0  0  0  0  0  0  0  0  0
   10.4292   -6.5917    0.0000 O   0  0  0  0  0  0  0  0  0  0  0  0
    9.7167   -7.0167    0.0000 C   0  0  0  0  0  0  0  0  0  0  0  0
    5.4292   -4.5417    0.0000 C   0  0  0  0  0  0  0  0  0  0  0  0
   10.4167   -5.7667    0.0000 C   0  0  0  0  0  0  0  0  0  0  0  0
    6.1542   -4.9500    0.0000 C   0  0  0  0  0  0  0  0  0  0  0  0
    4.7167   -4.9625    0.0000 C   0  0  0  0  0  0  0  0  0  0  0  0
    5.4292   -3.7167    0.0000 F   0  0  0  0  0  0  0  0  0  0  0  0
    9.0250   -8.2625    0.0000 C   0  0  0  0  0  0  0  0  0  0  0  0
    8.2917   -7.0292    0.0000 C   0  0  0  0  0  0  0  0  0  0  0  0
    9.7375   -7.8375    0.0000 C   0  0  0  0  0  0  0  0  0  0  0  0
    8.9917   -6.6125    0.0000 C   0  0  0  0  0  0  0  0  0  0  0  0
    4.7250   -8.2667    0.0000 C   0  0  0  0  0  0  0  0  0  0  0  0
   11.1167   -5.3417    0.0000 C   0  0  0  0  0  0  0  0  0  0  0  0
   11.8417   -5.7500    0.0000 C   0  0  0  0  0  0  0  0  0  0  0  0
   11.1125   -4.5292    0.0000 C   0  0  0  0  0  0  0  0  0  0  0  0
   11.8125   -4.1000    0.0000 C   0  0  0  0  0  0  0  0  0  0  0  0
   12.5500   -5.3292    0.0000 C   0  0  0  0  0  0  0  0  0  0  0  0
   12.5375   -4.5042    0.0000 C   0  0  0  0  0  0  0  0  0  0  0  0
  2  1  1  0  0  0  0
  3  2  1  0  0  0  0
  4  3  1  0  0  0  0
  5  1  1  0  0  0  0
  6  1  2  0  0  0  0
  7  1  2  0  0  0  0
  8  4  1  0  0  0  0
  9  4  2  0  0  0  0
 10  5  1  0  0  0  0
 11  5  2  0  0  0  0
 12  8  1  0  0  0  0
 13 14  1  0  0  0  0
 14 23  1  0  0  0  0
 15 17  2  0  0  0  0
 16 13  1  0  0  0  0
 17 11  1  0  0  0  0
 18 10  2  0  0  0  0
 19 15  1  0  0  0  0
 20 12  2  0  0  0  0
 21 12  1  0  0  0  0
 22 20  1  0  0  0  0
 23 21  2  0  0  0  0
 24  2  1  0  0  0  0
 25 16  1  0  0  0  0
 26 25  2  0  0  0  0
 27 25  1  0  0  0  0
 28 27  2  0  0  0  0
 29 26  1  0  0  0  0
 30 28  1  0  0  0  0
 18 15  1  0  0  0  0
 22 14  2  0  0  0  0
 30 29  2  0  0  0  0
M  END
>  <ID> (7677031)
7677031

>  <Supplier> (7677031)
ChemBridge

>  <clogP> (7677031)
4.413000000000000e+000

>  <RB> (7677031)
7

>  <tPSA> (7677031)
7.570999999999999e+001

>  <Hacc> (7677031)
5

>  <Hdon> (7677031)
1

>  <LogSw> (7677031)
-5.145000000000000e+000

>  <Group> (7677031)
1

>  <Core> (7677031)
084

$$$$
5950598
  -ISIS-  03310818232D

 21 23  0  0  0  0  0  0  0  0999 V2000
   -0.8958    0.8833    0.0000 C   0  0  0  0  0  0  0  0  0  0  0  0
   -0.4708    0.6000    0.0000 O   0  0  0  0  0  0  0  0  0  0  0  0
   -2.6958   -0.0167    0.0000 C   0  0  0  0  0  0  0  0  0  0  0  0
   -0.0708    0.9000    0.0000 C   0  0  0  0  0  0  0  0  0  0  0  0
   -2.2958    0.2833    0.0000 C   0  0  0  0  0  0  0  0  0  0  0  0
   -1.8708   -0.0167    0.0000 C   0  0  0  0  0  0  0  0  0  0  0  0
   -2.5333   -0.5000    0.0000 O   0  0  0  0  0  0  0  0  0  0  0  0
    0.6042    0.2833    0.0000 C   0  0  0  0  0  0  0  0  0  0  0  0
   -0.7500    1.3625    0.0000 C   0  0  0  0  0  0  0  0  0  0  0  0
   -1.3708    0.7000    0.0000 C   0  0  0  0  0  0  0  0  0  0  0  0
    1.6042    0.0208    0.0000 N   0  0  0  0  0  0  0  0  0  0  0  0
   -0.1125   -0.4792    0.0000 N   0  0  0  0  0  0  0  0  0  0  0  0
    0.4667    0.7833    0.0000 C   0  0  0  0  0  0  0  0  0  0  0  0
    1.1042    0.1458    0.0000 C   0  0  0  0  0  0  0  0  0  0  0  0
    0.2500   -0.0917    0.0000 C   0  0  0  0  0  0  0  0  0  0  0  0
   -1.4125    0.2000    0.0000 C   0  0  0  0  0  0  0  0  0  0  0  0
   -0.2500    1.3833    0.0000 C   0  0  0  0  0  0  0  0  0  0  0  0
   -2.2500    0.8000    0.0000 C   0  0  0  0  0  0  0  0  0  0  0  0
   -2.0333   -0.5000    0.0000 C   0  0  0  0  0  0  0  0  0  0  0  0
   -1.7958    1.0208    0.0000 C   0  0  0  0  0  0  0  0  0  0  0  0
   -3.1958    0.1458    0.0000 O   0  0  0  0  0  0  0  0  0  0  0  0
  2  1  1  0  0  0  0
  3  5  1  0  0  0  0
  4  2  1  0  0  0  0
  5 18  1  0  0  0  0
  6 16  1  0  0  0  0
  7 19  1  0  0  0  0
  8 13  2  0  0  0  0
  9  1  2  0  0  0  0
 10  1  1  0  0  0  0
 11 14  3  0  0  0  0
 12 15  3  0  0  0  0
 13  4  1  0  0  0  0
 14  8  1  0  0  0  0
 15  8  1  0  0  0  0
 16 10  2  0  0  0  0
 17  9  1  0  0  0  0
 18 20  2  0  0  0  0
 19  6  1  0  0  0  0
 20 10  1  0  0  0  0
 21  3  2  0  0  0  0
  4 17  2  0  0  0  0
  6  5  2  0  0  0  0
  3  7  1  0  0  0  0
M  END
>  <ID> (5950598)
5950598

>  <Supplier> (5950598)
ChemBridge

>  <clogP> (5950598)
2.410000000000000e+000

>  <RB> (5950598)
2

>  <tPSA> (5950598)
8.702000000000000e+001

>  <Hacc> (5950598)
5

>  <Hdon> (5950598)
0

>  <LogSw> (5950598)
-3.538000000000000e+000

>  <Group> (5950598)
2

>  <Core> (5950598)
109

$$$$
5950599
  -ISIS-  03310818232D

 27 29  0  0  0  0  0  0  0  0999 V2000
    6.8000   -1.7000    0.0000 N   0  0  3  0  0  0  0  0  0  0  0  0
    7.0667   -0.9167    0.0000 C   0  0  0  0  0  0  0  0  0  0  0  0
    5.9750   -1.6917    0.0000 C   0  0  0  0  0  0  0  0  0  0  0  0
    5.7292   -0.8917    0.0000 C   0  0  0  0  0  0  0  0  0  0  0  0
    6.4042   -0.4250    0.0000 C   0  0  0  0  0  0  0  0  0  0  0  0
    7.2667   -2.3792    0.0000 C   0  0  0  0  0  0  0  0  0  0  0  0
    2.8750   -0.9000    0.0000 C   0  0  0  0  0  0  0  0  0  0  0  0
    1.4417   -0.9000    0.0000 N   0  0  3  0  0  0  0  0  0  0  0  0
    4.3042   -0.9000    0.0000 N   0  0  0  0  0  0  0  0  0  0  0  0
    5.0167   -0.4875    0.0000 C   0  0  0  0  0  0  0  0  0  0  0  0
    3.5917   -0.4875    0.0000 N   0  0  0  0  0  0  0  0  0  0  0  0
    2.1625   -0.4875    0.0000 C   0  0  0  0  0  0  0  0  0  0  0  0
    6.9167   -3.1250    0.0000 C   0  0  0  0  0  0  0  0  0  0  0  0
    8.0917   -2.3042    0.0000 C   0  0  0  0  0  0  0  0  0  0  0  0
    2.8750   -1.7250    0.0000 O   0  0  0  0  0  0  0  0  0  0  0  0
    0.0125   -1.7125    0.0000 O   0  0  0  0  0  0  0  0  0  0  0  0
    7.8542   -0.6792    0.0000 C   0  0  0  0  0  0  0  0  0  0  0  0
    5.4792   -2.3500    0.0000 C   0  0  0  0  0  0  0  0  0  0  0  0
    1.4417   -1.7167    0.0000 C   0  0  0  0  0  0  0  0  0  0  0  0
    0.7292   -0.4792    0.0000 C   0  0  0  0  0  0  0  0  0  0  0  0
    8.2125   -3.7292    0.0000 C   0  0  0  0  0  0  0  0  0  0  0  0
    7.3875   -3.8000    0.0000 C   0  0  0  0  0  0  0  0  0  0  0  0
    8.5625   -2.9792    0.0000 C   0  0  0  0  0  0  0  0  0  0  0  0
    0.7292   -2.1292    0.0000 C   0  0  0  0  0  0  0  0  0  0  0  0
    0.0167   -0.8875    0.0000 C   0  0  0  0  0  0  0  0  0  0  0  0
    8.4417   -1.5542    0.0000 C   0  0  0  0  0  0  0  0  0  0  0  0
    6.0917   -3.1917    0.0000 C   0  0  0  0  0  0  0  0  0  0  0  0
  2  1  1  0  0  0  0
  3  1  1  0  0  0  0
  4  3  2  0  0  0  0
  5  2  2  0  0  0  0
  6  1  1  0  0  0  0
  7 11  1  0  0  0  0
  8 12  1  0  0  0  0
  9 10  2  0  0  0  0
 10  4  1  0  0  0  0
 11  9  1  0  0  0  0
 12  7  1  0  0  0  0
 13  6  2  0  0  0  0
 14  6  1  0  0  0  0
 15  7  2  0  0  0  0
 16 25  1  0  0  0  0
 17  2  1  0  0  0  0
 18  3  1  0  0  0  0
 19  8  1  0  0  0  0
 20  8  1  0  0  0  0
 21 23  1  0  0  0  0
 22 13  1  0  0  0  0
 23 14  2  0  0  0  0
 24 19  1  0  0  0  0
 25 20  1  0  0  0  0
 26 14  1  0  0  0  0
 27 13  1  0  0  0  0
  4  5  1  0  0  0  0
 21 22  2  0  0  0  0
 16 24  1  0  0  0  0
M  END
>  <ID> (5950599)
5950599

>  <Supplier> (5950599)
ChemBridge

>  <clogP> (5950599)
4.250000000000000e+000

>  <RB> (5950599)
5

>  <tPSA> (5950599)
5.886000000000000e+001

>  <Hacc> (5950599)
5

>  <Hdon> (5950599)
1

>  <LogSw> (5950599)
-5.516000000000000e+000

>  <Group> (5950599)
3

>  <Core> (5950599)
216

$$$$
6066060
  -ISIS-  03310818232D

 20 21  0  0  0  0  0  0  0  0999 V2000
    4.9625   -4.2167    0.0000 C   0  0  0  0  0  0  0  0  0  0  0  0
    4.2417   -3.8000    0.0000 C   0  0  0  0  0  0  0  0  0  0  0  0
    3.5250   -4.2042    0.0000 C   0  0  0  0  0  0  0  0  0  0  0  0
    9.2500   -4.2167    0.0000 N   0  0  0  0  0  0  0  0  0  0  0  0
    8.5375   -3.8042    0.0000 C   0  0  0  0  0  0  0  0  0  0  0  0
    4.9542   -5.0417    0.0000 O   0  0  0  0  0  0  0  0  0  0  0  0
    5.6792   -3.8042    0.0000 N   0  0  0  0  0  0  0  0  0  0  0  0
    7.8250   -4.2167    0.0000 S   0  0  0  0  0  0  0  0  0  0  0  0
    2.8125   -3.7917    0.0000 C   0  0  0  0  0  0  0  0  0  0  0  0
    9.9625   -3.8042    0.0000 C   0  0  0  0  0  0  0  0  0  0  0  0
    8.5292   -2.9792    0.0000 C   0  0  0  0  0  0  0  0  0  0  0  0
    6.3917   -4.2167    0.0000 C   0  0  0  0  0  0  0  0  0  0  0  0
    7.1042   -3.8042    0.0000 C   0  0  0  0  0  0  0  0  0  0  0  0
    2.1000   -4.1917    0.0000 C   0  0  0  0  0  0  0  0  0  0  0  0
    2.8167   -2.9625    0.0000 C   0  0  0  0  0  0  0  0  0  0  0  0
    9.9625   -2.9792    0.0000 C   0  0  0  0  0  0  0  0  0  0  0  0
    9.2417   -2.5667    0.0000 C   0  0  0  0  0  0  0  0  0  0  0  0
    2.1042   -2.5417    0.0000 C   0  0  0  0  0  0  0  0  0  0  0  0
    1.3875   -3.7792    0.0000 C   0  0  0  0  0  0  0  0  0  0  0  0
    1.3917   -2.9542    0.0000 C   0  0  0  0  0  0  0  0  0  0  0  0
  2  1  1  0  0  0  0
  3  2  2  0  0  0  0
  4  5  2  0  0  0  0
  5  8  1  0  0  0  0
  6  1  2  0  0  0  0
  7  1  1  0  0  0  0
  8 13  1  0  0  0  0
  9  3  1  0  0  0  0
 10  4  1  0  0  0  0
 11  5  1  0  0  0  0
 12  7  1  0  0  0  0
 13 12  1  0  0  0  0
 14  9  1  0  0  0  0
 15  9  2  0  0  0  0
 16 17  1  0  0  0  0
 17 11  2  0  0  0  0
 18 15  1  0  0  0  0
 19 14  2  0  0  0  0
 20 18  2  0  0  0  0
 19 20  1  0  0  0  0
 16 10  2  0  0  0  0
M  END
>  <ID> (6066060)
6066060

>  <Supplier> (6066060)
ChemBridge

>  <clogP> (6066060)
3.120000000000000e+000

>  <RB> (6066060)
6

>  <tPSA> (6066060)
4.199000000000000e+001

>  <Hacc> (6066060)
2

>  <Hdon> (6066060)
1

>  <LogSw> (6066060)
-3.939000000000000e+000

>  <Group> (6066060)
3

$$$$
6816656
  -ISIS-  03310818242D

 29 31  0  0  0  0  0  0  0  0999 V2000
    8.4250    0.0458    0.0000 N   0  3  0  0  0  0  0  0  0  0  0  0
    4.1292    0.0625    0.0000 C   0  0  0  0  0  0  0  0  0  0  0  0
    7.7042   -0.3625    0.0000 C   0  0  0  0  0  0  0  0  0  0  0  0
    9.1375   -0.3750    0.0000 O   0  5  0  0  0  0  0  0  0  0  0  0
    4.8417   -0.3417    0.0000 O   0  0  0  0  0  0  0  0  0  0  0  0
    5.5542   -1.5875    0.0000 C   0  0  0  0  0  0  0  0  0  0  0  0
    8.4292    0.8708    0.0000 O   0  0  0  0  0  0  0  0  0  0  0  0
    3.4167   -0.3542    0.0000 C   0  0  0  0  0  0  0  0  0  0  0  0
    6.2667   -1.1792    0.0000 C   0  0  0  0  0  0  0  0  0  0  0  0
    4.1292    0.8875    0.0000 O   0  0  0  0  0  0  0  0  0  0  0  0
    4.8417   -1.1667    0.0000 C   0  0  0  0  0  0  0  0  0  0  0  0
    5.5500   -2.4042    0.0000 O   0  0  0  0  0  0  0  0  0  0  0  0
    6.9917    0.0583    0.0000 C   0  0  0  0  0  0  0  0  0  0  0  0
    7.6917   -1.1917    0.0000 C   0  0  0  0  0  0  0  0  0  0  0  0
    6.2750   -0.3417    0.0000 C   0  0  0  0  0  0  0  0  0  0  0  0
    6.9792   -1.5917    0.0000 C   0  0  0  0  0  0  0  0  0  0  0  0
    3.4167   -1.1792    0.0000 C   0  0  0  0  0  0  0  0  0  0  0  0
    2.7000    0.0583    0.0000 C   0  0  0  0  0  0  0  0  0  0  0  0
    1.2792   -1.5917    0.0000 O   0  0  0  0  0  0  0  0  0  0  0  0
    1.9917   -1.1792    0.0000 C   0  0  0  0  0  0  0  0  0  0  0  0
    0.5667   -1.1875    0.0000 C   0  0  0  0  0  0  0  0  0  0  0  0
    2.7042   -1.5917    0.0000 C   0  0  0  0  0  0  0  0  0  0  0  0
    1.9875   -0.3625    0.0000 C   0  0  0  0  0  0  0  0  0  0  0  0
   -0.1458   -1.6042    0.0000 C   0  0  0  0  0  0  0  0  0  0  0  0
   -0.1458   -2.4292    0.0000 C   0  0  0  0  0  0  0  0  0  0  0  0
   -0.8625   -1.1917    0.0000 C   0  0  0  0  0  0  0  0  0  0  0  0
   -0.8625   -2.8417    0.0000 C   0  0  0  0  0  0  0  0  0  0  0  0
   -1.5750   -1.6042    0.0000 C   0  0  0  0  0  0  0  0  0  0  0  0
   -1.5750   -2.4292    0.0000 C   0  0  0  0  0  0  0  0  0  0  0  0
  2  5  1  0  0  0  0
  3  1  1  0  0  0  0
  4  1  1  0  0  0  0
  5 11  1  0  0  0  0
  6  9  1  0  0  0  0
  7  1  2  0  0  0  0
  8  2  1  0  0  0  0
  9 16  2  0  0  0  0
 10  2  2  0  0  0  0
 11  6  1  0  0  0  0
 12  6  2  0  0  0  0
 13  3  1  0  0  0  0
 14  3  2  0  0  0  0
 15 13  2  0  0  0  0
 16 14  1  0  0  0  0
 17  8  2  0  0  0  0
 18  8  1  0  0  0  0
 19 20  1  0  0  0  0
 20 23  1  0  0  0  0
 21 19  1  0  0  0  0
 22 17  1  0  0  0  0
 23 18  2  0  0  0  0
 24 21  1  0  0  0  0
 25 24  1  0  0  0  0
 26 24  2  0  0  0  0
 27 25  2  0  0  0  0
 28 26  1  0  0  0  0
 29 28  2  0  0  0  0
 15  9  1  0  0  0  0
 20 22  2  0  0  0  0
 29 27  1  0  0  0  0
M  CHG  2   1   1   4  -1
M  END
>  <ID> (6816656)
6816656

>  <Supplier> (6816656)
ChemBridge

>  <clogP> (6816656)
4.910000000000000e+000

>  <RB> (6816656)
8

>  <tPSA> (6816656)
9.574000000000000e+001

>  <Hacc> (6816656)
6

>  <Hdon> (6816656)
0

>  <LogSw> (6816656)
-6.636000000000000e+000

>  <Group> (6816656)
1

>  <Core> (6816656)
217

$$$$
7123132
  -ISIS-  03310818252D

 21 22  0  0  0  0  0  0  0  0999 V2000
    9.6792   -3.8042    0.0000 N   0  3  0  0  0  0  0  0  0  0  0  0
    6.0917   -4.2375    0.0000 C   0  0  0  0  0  0  0  0  0  0  0  0
    6.8042   -3.8167    0.0000 N   0  0  0  0  0  0  0  0  0  0  0  0
    8.9542   -4.2167    0.0000 C   0  0  0  0  0  0  0  0  0  0  0  0
    5.3792   -3.8250    0.0000 C   0  0  3  0  0  0  0  0  0  0  0  0
    8.2417   -3.8042    0.0000 C   0  0  0  0  0  0  0  0  0  0  0  0
   10.3917   -4.2167    0.0000 O   0  5  0  0  0  0  0  0  0  0  0  0
    9.6750   -2.9750    0.0000 O   0  0  0  0  0  0  0  0  0  0  0  0
    7.5167   -4.2250    0.0000 C   0  0  0  0  0  0  0  0  0  0  0  0
    6.0917   -5.0625    0.0000 O   0  0  0  0  0  0  0  0  0  0  0  0
    4.6667   -4.2375    0.0000 C   0  0  0  0  0  0  0  0  0  0  0  0
    5.3792   -3.0000    0.0000 O   0  0  0  0  0  0  0  0  0  0  0  0
    8.9542   -5.0542    0.0000 C   0  0  0  0  0  0  0  0  0  0  0  0
    8.2417   -5.4667    0.0000 C   0  0  0  0  0  0  0  0  0  0  0  0
    7.5250   -5.0542    0.0000 C   0  0  0  0  0  0  0  0  0  0  0  0
    4.6667   -5.0542    0.0000 C   0  0  0  0  0  0  0  0  0  0  0  0
    3.9500   -3.8167    0.0000 C   0  0  0  0  0  0  0  0  0  0  0  0
    6.0917   -2.5875    0.0000 C   0  0  0  0  0  0  0  0  0  0  0  0
    3.9500   -5.4667    0.0000 C   0  0  0  0  0  0  0  0  0  0  0  0
    3.2375   -4.2250    0.0000 C   0  0  0  0  0  0  0  0  0  0  0  0
    3.2292   -5.0500    0.0000 C   0  0  0  0  0  0  0  0  0  0  0  0
  2  3  1  0  0  0  0
  3  9  1  0  0  0  0
  4  1  1  0  0  0  0
  5  2  1  0  0  0  0
  6  4  1  0  0  0  0
  7  1  1  0  0  0  0
  8  1  2  0  0  0  0
  9  6  2  0  0  0  0
 10  2  2  0  0  0  0
 11  5  1  0  0  0  0
 12  5  1  0  0  0  0
 13  4  2  0  0  0  0
 14 13  1  0  0  0  0
 15 14  2  0  0  0  0
 16 11  1  0  0  0  0
 17 11  2  0  0  0  0
 18 12  1  0  0  0  0
 19 16  2  0  0  0  0
 20 17  1  0  0  0  0
 21 20  2  0  0  0  0
  9 15  1  0  0  0  0
 21 19  1  0  0  0  0
M  CHG  2   1   1   7  -1
M  END
>  <ID> (7123132)
7123132

>  <Supplier> (7123132)
ChemBridge

>  <clogP> (7123132)
2.800000000000000e+000

>  <RB> (7123132)
3

>  <tPSA> (7123132)
8.147000000000000e+001

>  <Hacc> (7123132)
4

>  <Hdon> (7123132)
1

>  <LogSw> (7123132)
-4.069000000000000e+000

>  <Group> (7123132)
3

>  <Core> (7123132)
513

$$$$
6816653
  -ISIS-  03310818242D

 29 30  0  0  0  0  0  0  0  0999 V2000
   -0.1000   -1.8875    0.0000 N   0  3  0  0  0  0  0  0  0  0  0  0
   -0.5000   -1.2042    0.0000 C   0  0  0  0  0  0  0  0  0  0  0  0
   -2.3958   -0.5375    0.0000 C   0  0  3  0  0  0  0  0  0  0  0  0
   -0.1458    2.0625    0.0000 C   0  0  3  0  0  0  0  0  0  0  0  0
   -1.2458   -1.1875    0.0000 C   0  0  0  0  0  0  0  0  0  0  0  0
    1.8167    1.4500    0.0000 C   0  0  0  0  0  0  0  0  0  0  0  0
   -1.6208   -0.5500    0.0000 C   0  0  0  0  0  0  0  0  0  0  0  0
    0.6417    2.1000    0.0000 C   0  0  0  0  0  0  0  0  0  0  0  0
    2.1917    0.7625    0.0000 N   0  0  0  0  0  0  0  0  0  0  0  0
   -0.1125   -0.5500    0.0000 C   0  0  0  0  0  0  0  0  0  0  0  0
    1.0417    1.4375    0.0000 C   0  0  0  0  0  0  0  0  0  0  0  0
    1.8042    0.0958    0.0000 C   0  0  0  0  0  0  0  0  0  0  0  0
   -0.5125   -2.5375    0.0000 O   0  5  0  0  0  0  0  0  0  0  0  0
    0.6792   -0.5500    0.0000 S   0  0  0  0  0  0  0  0  0  0  0  0
    0.6542   -1.9000    0.0000 O   0  0  0  0  0  0  0  0  0  0  0  0
    2.2042    2.1125    0.0000 C   0  0  0  0  0  0  0  0  0  0  0  0
   -1.2333    0.1000    0.0000 C   0  0  0  0  0  0  0  0  0  0  0  0
    1.0292    2.7708    0.0000 C   0  0  0  0  0  0  0  0  0  0  0  0
    2.1792   -0.5375    0.0000 O   0  0  0  0  0  0  0  0  0  0  0  0
   -0.4708    0.1000    0.0000 C   0  0  0  0  0  0  0  0  0  0  0  0
    1.8042    2.7750    0.0000 C   0  0  0  0  0  0  0  0  0  0  0  0
   -2.3625    0.2458    0.0000 F   0  0  0  0  0  0  0  0  0  0  0  0
   -0.9333    2.0375    0.0000 F   0  0  0  0  0  0  0  0  0  0  0  0
   -0.1833    2.8625    0.0000 F   0  0  0  0  0  0  0  0  0  0  0  0
   -0.1208    1.2708    0.0000 F   0  0  0  0  0  0  0  0  0  0  0  0
   -2.3833   -1.3000    0.0000 F   0  0  0  0  0  0  0  0  0  0  0  0
   -3.1500   -0.5292    0.0000 F   0  0  0  0  0  0  0  0  0  0  0  0
    1.0667    0.1125    0.0000 C   0  0  0  0  0  0  0  0  0  0  0  0
    2.9875    2.1083    0.0000 Cl  0  0  0  0  0  0  0  0  0  0  0  0
  2  1  1  0  0  0  0
  3  7  1  0  0  0  0
  4  8  1  0  0  0  0
  5  2  2  0  0  0  0
  6  9  1  0  0  0  0
  7  5  1  0  0  0  0
  8 11  2  0  0  0  0
  9 12  1  0  0  0  0
 10  2  1  0  0  0  0
 11  6  1  0  0  0  0
 12 28  1  0  0  0  0
 13  1  1  0  0  0  0
 14 10  1  0  0  0  0
 15  1  2  0  0  0  0
 16  6  2  0  0  0  0
 17 20  1  0  0  0  0
 18 21  2  0  0  0  0
 19 12  2  0  0  0  0
 20 10  2  0  0  0  0
 21 16  1  0  0  0  0
 22  3  1  0  0  0  0
 23  4  1  0  0  0  0
 24  4  1  0  0  0  0
 25  4  1  0  0  0  0
 26  3  1  0  0  0  0
 27  3  1  0  0  0  0
 28 14  1  0  0  0  0
 29 16  1  0  0  0  0
  7 17  2  0  0  0  0
 18  8  1  0  0  0  0
M  CHG  2   1   1  13  -1
M  END
>  <ID> (6816653)
6816653

>  <Supplier> (6816653)
ChemBridge

>  <clogP> (6816653)
5.300000000000000e+000

>  <RB> (6816653)
4

>  <tPSA> (6816653)
7.224000000000000e+001

>  <Hacc> (6816653)
3

>  <Hdon> (6816653)
1

>  <LogSw> (6816653)
-7.460000000000000e+000

>  <Group> (6816653)
1

>  <Core> (6816653)
431

$$$$
7123139
  -ISIS-  03310818252D

 25 27  0  0  0  0  0  0  0  0999 V2000
    3.7125   -0.6500    0.0000 N   0  0  3  0  0  0  0  0  0  0  0  0
    3.9625   -1.4375    0.0000 C   0  0  0  0  0  0  0  0  0  0  0  0
    4.3750   -0.1667    0.0000 C   0  0  0  0  0  0  0  0  0  0  0  0
    5.0417   -0.6500    0.0000 C   0  0  0  0  0  0  0  0  0  0  0  0
    4.7875   -1.4375    0.0000 S   0  0  0  0  0  0  0  0  0  0  0  0
    5.8292   -0.3917    0.0000 C   0  0  0  0  0  0  0  0  0  0  0  0
    2.9292   -0.3917    0.0000 C   0  0  0  0  0  0  0  0  0  0  0  0
    2.3125   -0.9500    0.0000 C   0  0  0  0  0  0  0  0  0  0  0  0
    3.4792   -2.1042    0.0000 O   0  0  0  0  0  0  0  0  0  0  0  0
    4.3750    0.6583    0.0000 O   0  0  0  0  0  0  0  0  0  0  0  0
    6.3292    2.0208    0.0000 C   0  0  0  0  0  0  0  0  0  0  0  0
    2.4875   -1.7542    0.0000 O   0  0  0  0  0  0  0  0  0  0  0  0
    6.0000    0.4125    0.0000 C   0  0  0  0  0  0  0  0  0  0  0  0
    6.4917    2.8208    0.0000 C   0  0  0  0  0  0  0  0  0  0  0  0
    6.9417    1.4708    0.0000 C   0  0  0  0  0  0  0  0  0  0  0  0
    5.5542    1.7583    0.0000 C   0  0  0  0  0  0  0  0  0  0  0  0
    6.7875    0.6625    0.0000 C   0  0  0  0  0  0  0  0  0  0  0  0
    5.3875    0.9583    0.0000 C   0  0  0  0  0  0  0  0  0  0  0  0
    1.5292   -0.6917    0.0000 O   0  0  0  0  0  0  0  0  0  0  0  0
    7.2667    3.0833    0.0000 C   0  0  0  0  0  0  0  0  0  0  0  0
    5.8792    3.3625    0.0000 C   0  0  0  0  0  0  0  0  0  0  0  0
    1.3542    0.1083    0.0000 C   0  0  0  0  0  0  0  0  0  0  0  0
    7.4417    3.8750    0.0000 C   0  0  0  0  0  0  0  0  0  0  0  0
    6.0500    4.1542    0.0000 C   0  0  0  0  0  0  0  0  0  0  0  0
    6.8292    4.4167    0.0000 C   0  0  0  0  0  0  0  0  0  0  0  0
  2  1  1  0  0  0  0
  3  1  1  0  0  0  0
  4  3  1  0  0  0  0
  5  2  1  0  0  0  0
  6  4  2  0  0  0  0
  7  1  1  0  0  0  0
  8  7  1  0  0  0  0
  9  2  2  0  0  0  0
 10  3  2  0  0  0  0
 11 16  1  0  0  0  0
 12  8  2  0  0  0  0
 13  6  1  0  0  0  0
 14 11  1  0  0  0  0
 15 17  1  0  0  0  0
 16 18  2  0  0  0  0
 17 13  2  0  0  0  0
 18 13  1  0  0  0  0
 19  8  1  0  0  0  0
 20 14  2  0  0  0  0
 21 14  1  0  0  0  0
 22 19  1  0  0  0  0
 23 20  1  0  0  0  0
 24 21  2  0  0  0  0
 25 24  1  0  0  0  0
  4  5  1  0  0  0  0
 11 15  2  0  0  0  0
 23 25  2  0  0  0  0
M  END
>  <ID> (7123139)
7123139

>  <Supplier> (7123139)
ChemBridge

>  <clogP> (7123139)
4.300000000000000e+000

>  <RB> (7123139)
4

>  <tPSA> (7123139)
6.367999999999998e+001

>  <Hacc> (7123139)
4

>  <Hdon> (7123139)
0

>  <LogSw> (7123139)
-5.449000000000002e+000

>  <Group> (7123139)
2

>  <Core> (7123139)
002

$$$$
7278168
  -ISIS-  03310818262D

 27 29  0  0  0  0  0  0  0  0999 V2000
    0.4500    0.2708    0.0000 C   0  0  0  0  0  0  0  0  0  0  0  0
   -0.2500   -0.0875    0.0000 C   0  0  0  0  0  0  0  0  0  0  0  0
    1.0375   -0.2792    0.0000 C   0  0  0  0  0  0  0  0  0  0  0  0
   -0.1125   -0.8875    0.0000 S   0  0  0  0  0  0  0  0  0  0  0  0
    0.6667   -1.0042    0.0000 C   0  0  0  0  0  0  0  0  0  0  0  0
   -1.0000    0.2708    0.0000 N   0  0  0  0  0  0  0  0  0  0  0  0
    0.5375    1.0708    0.0000 C   0  0  0  0  0  0  0  0  0  0  0  0
   -1.6625   -0.1792    0.0000 C   0  0  0  0  0  0  0  0  0  0  0  0
    1.8292   -0.1042    0.0000 C   0  0  0  0  0  0  0  0  0  0  0  0
    1.2792    1.3833    0.0000 O   0  0  0  0  0  0  0  0  0  0  0  0
   -1.6000   -0.9875    0.0000 O   0  0  0  0  0  0  0  0  0  0  0  0
   -3.0500   -0.3000    0.0000 S   0  0  0  0  0  0  0  0  0  0  0  0
    2.0667    0.6625    0.0000 C   0  0  0  0  0  0  0  0  0  0  0  0
    2.3792   -0.7042    0.0000 C   0  0  0  0  0  0  0  0  0  0  0  0
   -2.4000    0.1625    0.0000 C   0  0  0  0  0  0  0  0  0  0  0  0
   -0.1125    1.5333    0.0000 O   0  0  0  0  0  0  0  0  0  0  0  0
    3.4042    0.2333    0.0000 C   0  0  0  0  0  0  0  0  0  0  0  0
   -3.7708    0.0458    0.0000 C   0  0  0  0  0  0  0  0  0  0  0  0
    2.8667    0.8333    0.0000 C   0  0  0  0  0  0  0  0  0  0  0  0
    3.1667   -0.5375    0.0000 C   0  0  0  0  0  0  0  0  0  0  0  0
    4.1875    0.4000    0.0000 Cl  0  0  0  0  0  0  0  0  0  0  0  0
   -0.8500    1.2000    0.0000 C   0  0  0  0  0  0  0  0  0  0  0  0
   -4.4208   -0.4167    0.0000 C   0  0  0  0  0  0  0  0  0  0  0  0
   -3.8458    0.8500    0.0000 C   0  0  0  0  0  0  0  0  0  0  0  0
   -4.5833    1.1958    0.0000 C   0  0  0  0  0  0  0  0  0  0  0  0
   -5.1625   -0.0875    0.0000 C   0  0  0  0  0  0  0  0  0  0  0  0
   -5.2458    0.7208    0.0000 C   0  0  0  0  0  0  0  0  0  0  0  0
  2  1  2  0  0  0  0
  3  1  1  0  0  0  0
  4  2  1  0  0  0  0
  5  3  2  0  0  0  0
  6  2  1  0  0  0  0
  7  1  1  0  0  0  0
  8  6  1  0  0  0  0
  9  3  1  0  0  0  0
 10  7  2  0  0  0  0
 11  8  2  0  0  0  0
 12 15  1  0  0  0  0
 13  9  1  0  0  0  0
 14  9  2  0  0  0  0
 15  8  1  0  0  0  0
 16  7  1  0  0  0  0
 17 20  2  0  0  0  0
 18 12  1  0  0  0  0
 19 13  2  0  0  0  0
 20 14  1  0  0  0  0
 21 17  1  0  0  0  0
 22 16  1  0  0  0  0
 23 18  1  0  0  0  0
 24 18  2  0  0  0  0
 25 24  1  0  0  0  0
 26 23  2  0  0  0  0
 27 25  2  0  0  0  0
  5  4  1  0  0  0  0
 17 19  1  0  0  0  0
 26 27  1  0  0  0  0
M  END
>  <ID> (7278168)
7278168

>  <Supplier> (7278168)
ChemBridge

>  <clogP> (7278168)
6.010000000000000e+000

>  <RB> (7278168)
6

>  <tPSA> (7278168)
5.540000000000000e+001

>  <Hacc> (7278168)
3

>  <Hdon> (7278168)
1

>  <LogSw> (7278168)
-7.379000000000000e+000

>  <Group> (7278168)
1

>  <Core> (7278168)
098

$$$$
6816659
  -ISIS-  03310818242D

 24 25  0  0  0  0  0  0  0  0999 V2000
    9.2250   -2.8542    0.0000 N   0  0  0  0  0  0  0  0  0  0  0  0
    9.9292   -2.4542    0.0000 C   0  0  0  0  0  0  0  0  0  0  0  0
    7.7542   -2.8875    0.0000 C   0  0  0  0  0  0  0  0  0  0  0  0
   10.6292   -2.8625    0.0000 C   0  0  0  0  0  0  0  0  0  0  0  0
    8.5292   -2.4500    0.0000 O   0  0  0  0  0  0  0  0  0  0  0  0
    4.2500   -1.6417    0.0000 C   0  0  0  0  0  0  0  0  0  0  0  0
    7.7417   -3.7792    0.0000 O   0  0  0  0  0  0  0  0  0  0  0  0
   11.3292   -2.4542    0.0000 C   0  0  0  0  0  0  0  0  0  0  0  0
   10.6250   -3.6667    0.0000 C   0  0  0  0  0  0  0  0  0  0  0  0
    4.9542   -1.2417    0.0000 C   0  0  0  0  0  0  0  0  0  0  0  0
    4.2417   -2.4542    0.0000 C   0  0  0  0  0  0  0  0  0  0  0  0
    9.9292   -1.6417    0.0000 N   0  0  0  0  0  0  0  0  0  0  0  0
    7.0542   -2.4750    0.0000 C   0  0  0  0  0  0  0  0  0  0  0  0
    6.3500   -2.8750    0.0000 O   0  0  0  0  0  0  0  0  0  0  0  0
    5.6500   -2.4667    0.0000 C   0  0  0  0  0  0  0  0  0  0  0  0
   12.0250   -3.6750    0.0000 C   0  0  0  0  0  0  0  0  0  0  0  0
    3.5375   -1.2250    0.0000 C   0  0  3  0  0  0  0  0  0  0  0  0
    5.6542   -1.6542    0.0000 C   0  0  0  0  0  0  0  0  0  0  0  0
    4.9417   -2.8667    0.0000 C   0  0  0  0  0  0  0  0  0  0  0  0
   12.0292   -2.8667    0.0000 C   0  0  0  0  0  0  0  0  0  0  0  0
   11.3250   -4.0667    0.0000 C   0  0  0  0  0  0  0  0  0  0  0  0
   12.7250   -4.0792    0.0000 Cl  0  0  0  0  0  0  0  0  0  0  0  0
    3.5417   -0.4000    0.0000 C   0  0  0  0  0  0  0  0  0  0  0  0
    2.8167   -1.6292    0.0000 C   0  0  0  0  0  0  0  0  0  0  0  0
  2  1  2  0  0  0  0
  3  5  1  0  0  0  0
  4  2  1  0  0  0  0
  5  1  1  0  0  0  0
  6 11  2  0  0  0  0
  7  3  2  0  0  0  0
  8  4  2  0  0  0  0
  9  4  1  0  0  0  0
 10 18  2  0  0  0  0
 11 19  1  0  0  0  0
 12  2  1  0  0  0  0
 13  3  1  0  0  0  0
 14 13  1  0  0  0  0
 15 14  1  0  0  0  0
 16 21  1  0  0  0  0
 17  6  1  0  0  0  0
 18 15  1  0  0  0  0
 19 15  2  0  0  0  0
 20  8  1  0  0  0  0
 21  9  2  0  0  0  0
 22 16  1  0  0  0  0
 23 17  1  0  0  0  0
 24 17  1  0  0  0  0
 16 20  2  0  0  0  0
 10  6  1  0  0  0  0
M  END
>  <ID> (6816659)
6816659

>  <Supplier> (6816659)
ChemBridge

>  <clogP> (6816659)
4.510000000000000e+000

>  <RB> (6816659)
6

>  <tPSA> (6816659)
7.391000000000000e+001

>  <Hacc> (6816659)
4

>  <Hdon> (6816659)
1

>  <LogSw> (6816659)
-5.580000000000000e+000

>  <Group> (6816659)
1

>  <Core> (6816659)
314

$$$$
9076602
  -ISIS-  03310818292D

 25 28  0  0  0  0  0  0  0  0999 V2000
    7.0375    1.8708    0.0000 C   0  0  0  0  0  0  0  0  0  0  0  0
    6.3917    1.4958    0.0000 N   0  0  3  0  0  0  0  0  0  0  0  0
    7.6875    1.4958    0.0000 C   0  0  0  0  0  0  0  0  0  0  0  0
    7.6875    0.7458    0.0000 N   0  0  0  0  0  0  0  0  0  0  0  0
    5.8292    1.9958    0.0000 N   0  0  0  0  0  0  0  0  0  0  0  0
    6.1375    2.6750    0.0000 N   0  0  0  0  0  0  0  0  0  0  0  0
    6.8792    2.6000    0.0000 N   0  0  0  0  0  0  0  0  0  0  0  0
    6.3917    0.7458    0.0000 C   0  0  0  0  0  0  0  0  0  0  0  0
    7.0375    0.3708    0.0000 C   0  0  0  0  0  0  0  0  0  0  0  0
    8.3375    1.8708    0.0000 N   0  0  0  0  0  0  0  0  0  0  0  0
   10.9375    0.3708    0.0000 C   0  0  0  0  0  0  0  0  0  0  0  0
   10.2875    0.7458    0.0000 C   0  0  0  0  0  0  0  0  0  0  0  0
   10.9375   -0.3792    0.0000 O   0  0  0  0  0  0  0  0  0  0  0  0
    8.9875    1.4958    0.0000 C   0  0  0  0  0  0  0  0  0  0  0  0
    9.6375    0.3708    0.0000 C   0  0  0  0  0  0  0  0  0  0  0  0
   10.2875    1.4958    0.0000 C   0  0  0  0  0  0  0  0  0  0  0  0
   11.5875    0.7458    0.0000 O   0  0  0  0  0  0  0  0  0  0  0  0
    9.6375    1.8708    0.0000 C   0  0  0  0  0  0  0  0  0  0  0  0
    8.9875    0.7458    0.0000 C   0  0  0  0  0  0  0  0  0  0  0  0
    5.7417    0.3708    0.0000 C   0  0  0  0  0  0  0  0  0  0  0  0
    7.0375   -0.3792    0.0000 C   0  0  0  0  0  0  0  0  0  0  0  0
   12.2375    0.3708    0.0000 C   0  0  0  0  0  0  0  0  0  0  0  0
    5.7417   -0.3792    0.0000 C   0  0  0  0  0  0  0  0  0  0  0  0
    6.3917   -0.7542    0.0000 C   0  0  0  0  0  0  0  0  0  0  0  0
   12.8792    0.7458    0.0000 C   0  0  0  0  0  0  0  0  0  0  0  0
  2  1  1  0  0  0  0
  3  1  1  0  0  0  0
  4  3  2  0  0  0  0
  5  2  1  0  0  0  0
  6  7  1  0  0  0  0
  7  1  2  0  0  0  0
  8  2  1  0  0  0  0
  9  4  1  0  0  0  0
 10  3  1  0  0  0  0
 11 12  1  0  0  0  0
 12 15  2  0  0  0  0
 13 11  2  0  0  0  0
 14 10  1  0  0  0  0
 15 19  1  0  0  0  0
 16 18  2  0  0  0  0
 17 11  1  0  0  0  0
 18 14  1  0  0  0  0
 19 14  2  0  0  0  0
 20  8  2  0  0  0  0
 21  9  2  0  0  0  0
 22 17  1  0  0  0  0
 23 20  1  0  0  0  0
 24 21  1  0  0  0  0
 25 22  1  0  0  0  0
  5  6  2  0  0  0  0
  9  8  1  0  0  0  0
 12 16  1  0  0  0  0
 24 23  2  0  0  0  0
M  END
>  <ID> (9076602)
9076602

>  <Supplier> (9076602)
ChemBridge

>  <clogP> (9076602)
4.126999999999996e+000

>  <RB> (9076602)
3

>  <tPSA> (9076602)
9.430000000000000e+001

>  <Hacc> (9076602)
6

>  <Hdon> (9076602)
1

>  <LogSw> (9076602)
-6.272000000000000e+000

>  <Group> (9076602)
2

>  <Core> (9076602)
412

$$$$
9154854
  -ISIS-  03310818292D

 26 27  0  0  0  0  0  0  0  0999 V2000
    3.7292    3.3125    0.0000 C   0  0  0  0  0  0  0  0  0  0  0  0
    1.1042    2.6625    0.0000 C   0  0  0  0  0  0  0  0  0  0  0  0
    3.3542    2.6625    0.0000 C   0  0  0  0  0  0  0  0  0  0  0  0
    1.4792    2.0208    0.0000 N   0  0  0  0  0  0  0  0  0  0  0  0
    0.3542    2.6625    0.0000 C   0  0  0  0  0  0  0  0  0  0  0  0
    4.4792    3.3125    0.0000 N   0  0  3  0  0  0  0  0  0  0  0  0
    2.6042    2.6625    0.0000 C   0  0  0  0  0  0  0  0  0  0  0  0
    3.3542    3.9625    0.0000 O   0  0  0  0  0  0  0  0  0  0  0  0
    2.2292    2.0208    0.0000 C   0  0  0  0  0  0  0  0  0  0  0  0
    1.4792    3.3125    0.0000 O   0  0  0  0  0  0  0  0  0  0  0  0
   -0.0208    3.3125    0.0000 C   0  0  0  0  0  0  0  0  0  0  0  0
   -0.7708    3.3125    0.0000 C   0  0  0  0  0  0  0  0  0  0  0  0
    3.7292    2.0208    0.0000 C   0  0  0  0  0  0  0  0  0  0  0  0
   -1.1458    3.9625    0.0000 O   0  0  0  0  0  0  0  0  0  0  0  0
   -0.0208    2.0208    0.0000 C   0  0  0  0  0  0  0  0  0  0  0  0
    3.3542    1.3625    0.0000 C   0  0  0  0  0  0  0  0  0  0  0  0
   -0.7708    2.0208    0.0000 C   0  0  0  0  0  0  0  0  0  0  0  0
    4.8542    3.9625    0.0000 C   0  0  0  0  0  0  0  0  0  0  0  0
    4.8542    2.6625    0.0000 C   0  0  0  0  0  0  0  0  0  0  0  0
    2.6042    1.3625    0.0000 C   0  0  0  0  0  0  0  0  0  0  0  0
   -1.1458    2.6625    0.0000 C   0  0  0  0  0  0  0  0  0  0  0  0
   -1.8958    3.9625    0.0000 C   0  0  0  0  0  0  0  0  0  0  0  0
   -2.2708    4.6042    0.0000 C   0  0  0  0  0  0  0  0  0  0  0  0
    5.6042    2.6625    0.0000 C   0  0  0  0  0  0  0  0  0  0  0  0
    5.6042    3.9625    0.0000 C   0  0  0  0  0  0  0  0  0  0  0  0
   -3.0208    4.6042    0.0000 C   0  0  0  0  0  0  0  0  0  0  0  0
  2  4  1  0  0  0  0
  3  1  1  0  0  0  0
  4  9  1  0  0  0  0
  5  2  1  0  0  0  0
  6  1  1  0  0  0  0
  7  3  2  0  0  0  0
  8  1  2  0  0  0  0
  9  7  1  0  0  0  0
 10  2  2  0  0  0  0
 11  5  1  0  0  0  0
 12 11  2  0  0  0  0
 13  3  1  0  0  0  0
 14 12  1  0  0  0  0
 15  5  2  0  0  0  0
 16 13  2  0  0  0  0
 17 15  1  0  0  0  0
 18  6  1  0  0  0  0
 19  6  1  0  0  0  0
 20 16  1  0  0  0  0
 21 17  2  0  0  0  0
 22 14  1  0  0  0  0
 23 22  1  0  0  0  0
 24 19  1  0  0  0  0
 25 18  1  0  0  0  0
 26 23  1  0  0  0  0
  9 20  2  0  0  0  0
 21 12  1  0  0  0  0
M  END
>  <ID> (9154854)
9154854

>  <Supplier> (9154854)
ChemBridge

>  <clogP> (9154854)
3.822000000000000e+000

>  <RB> (9154854)
4

>  <tPSA> (9154854)
5.863999999999997e+001

>  <Hacc> (9154854)
3

>  <Hdon> (9154854)
1

>  <LogSw> (9154854)
-5.048000000000000e+000

>  <Group> (9154854)
2

$$$$
6587613
  -ISIS-  03310818242D

 29 33  0  0  0  0  0  0  0  0999 V2000
    5.0042   -1.1917    0.0000 N   0  0  3  0  0  0  0  0  0  0  0  0
    5.6667   -0.8167    0.0000 C   0  0  0  0  0  0  0  0  0  0  0  0
    5.1667   -1.9417    0.0000 C   0  0  0  0  0  0  0  0  0  0  0  0
    5.9250   -2.0250    0.0000 C   0  0  0  0  0  0  0  0  0  0  0  0
    5.6667   -0.0542    0.0000 N   0  0  0  0  0  0  0  0  0  0  0  0
    6.2375   -1.3250    0.0000 S   0  0  0  0  0  0  0  0  0  0  0  0
    4.3542   -0.8167    0.0000 C   0  0  0  0  0  0  0  0  0  0  0  0
    4.3542   -0.0542    0.0000 C   0  0  0  0  0  0  0  0  0  0  0  0
    6.2917   -2.6750    0.0000 C   0  0  0  0  0  0  0  0  0  0  0  0
    4.6625   -2.4917    0.0000 O   0  0  0  0  0  0  0  0  0  0  0  0
    7.6417   -2.6792    0.0000 C   0  0  0  0  0  0  0  0  0  0  0  0
    9.1625   -1.3875    0.0000 O   0  0  0  0  0  0  0  0  0  0  0  0
    8.0250   -2.0250    0.0000 C   0  0  0  0  0  0  0  0  0  0  0  0
    8.7792   -2.0292    0.0000 C   0  0  0  0  0  0  0  0  0  0  0  0
    7.6667   -0.0792    0.0000 C   0  0  0  0  0  0  0  0  0  0  0  0
    8.7917   -0.7375    0.0000 C   0  0  0  0  0  0  0  0  0  0  0  0
    8.0417   -0.7292    0.0000 C   0  0  0  0  0  0  0  0  0  0  0  0
    6.9167   -0.0667    0.0000 C   0  0  0  0  0  0  0  0  0  0  0  0
    3.7042   -1.1875    0.0000 C   0  0  0  0  0  0  0  0  0  0  0  0
    3.7042    0.3208    0.0000 C   0  0  0  0  0  0  0  0  0  0  0  0
    8.7667   -3.3292    0.0000 C   0  0  0  0  0  0  0  0  0  0  0  0
    6.9042   -1.3667    0.0000 C   0  0  0  0  0  0  0  0  0  0  0  0
    8.0167   -3.3250    0.0000 C   0  0  0  0  0  0  0  0  0  0  0  0
    9.1500   -2.6875    0.0000 C   0  0  0  0  0  0  0  0  0  0  0  0
    7.6542   -1.3792    0.0000 C   0  0  0  0  0  0  0  0  0  0  0  0
    6.5375   -0.7167    0.0000 C   0  0  0  0  0  0  0  0  0  0  0  0
    6.5542    0.5833    0.0000 C   0  0  0  0  0  0  0  0  0  0  0  0
    3.0542   -0.8125    0.0000 C   0  0  0  0  0  0  0  0  0  0  0  0
    3.0542   -0.0625    0.0000 C   0  0  0  0  0  0  0  0  0  0  0  0
  2  1  1  0  0  0  0
  3  1  1  0  0  0  0
  4  3  1  0  0  0  0
  5  2  2  0  0  0  0
  6  2  1  0  0  0  0
  7  1  1  0  0  0  0
  8  7  1  0  0  0  0
  9  4  2  0  0  0  0
 10  3  2  0  0  0  0
 11  9  1  0  0  0  0
 12 14  1  0  0  0  0
 13 11  2  0  0  0  0
 14 13  1  0  0  0  0
 15 17  2  0  0  0  0
 16 12  1  0  0  0  0
 17 16  1  0  0  0  0
 18 15  1  0  0  0  0
 19  7  2  0  0  0  0
 20  8  2  0  0  0  0
 21 23  2  0  0  0  0
 22 25  2  0  0  0  0
 23 11  1  0  0  0  0
 24 21  1  0  0  0  0
 25 17  1  0  0  0  0
 26 22  1  0  0  0  0
 27 18  1  0  0  0  0
 28 19  1  0  0  0  0
 29 28  2  0  0  0  0
  5  8  1  0  0  0  0
  6  4  1  0  0  0  0
 29 20  1  0  0  0  0
 14 24  2  0  0  0  0
 18 26  2  0  0  0  0
M  END
>  <ID> (6587613)
6587613

>  <Supplier> (6587613)
ChemBridge

>  <clogP> (6587613)
4.859999999999999e+000

>  <RB> (6587613)
4

>  <tPSA> (6587613)
4.359999999999999e+001

>  <Hacc> (6587613)
4

>  <Hdon> (6587613)
0

>  <LogSw> (6587613)
-6.255000000000000e+000

>  <Group> (6587613)
3

>  <Core> (6587613)
032

$$$$
7996016
  -ISIS-  03310818282D

 23 24  0  0  0  0  0  0  0  0999 V2000
    5.5042    2.6333    0.0000 S   0  0  3  0  0  0  0  0  0  0  0  0
    4.8542    2.2583    0.0000 N   0  0  3  0  0  0  0  0  0  0  0  0
    4.2042    2.6333    0.0000 C   0  0  0  0  0  0  0  0  0  0  0  0
    3.5542    2.2583    0.0000 C   0  0  0  0  0  0  0  0  0  0  0  0
    5.3125    3.3583    0.0000 O   0  0  0  0  0  0  0  0  0  0  0  0
    5.8250    1.9583    0.0000 O   0  0  0  0  0  0  0  0  0  0  0  0
    2.9042    2.6333    0.0000 N   0  0  0  0  0  0  0  0  0  0  0  0
    3.5542    1.5083    0.0000 O   0  0  0  0  0  0  0  0  0  0  0  0
    4.8542    1.5083    0.0000 C   0  0  3  0  0  0  0  0  0  0  0  0
    6.2125    2.8958    0.0000 C   0  0  0  0  0  0  0  0  0  0  0  0
    2.2542    2.2583    0.0000 C   0  0  3  0  0  0  0  0  0  0  0  0
    4.2042    1.1333    0.0000 C   0  0  0  0  0  0  0  0  0  0  0  0
    5.5042    1.1333    0.0000 C   0  0  0  0  0  0  0  0  0  0  0  0
    1.6625    2.7208    0.0000 C   0  0  0  0  0  0  0  0  0  0  0  0
    2.3542    1.5208    0.0000 C   0  0  0  0  0  0  0  0  0  0  0  0
    5.5042    0.3833    0.0000 C   0  0  0  0  0  0  0  0  0  0  0  0
    4.2042    0.3833    0.0000 C   0  0  0  0  0  0  0  0  0  0  0  0
    1.9000    0.9208    0.0000 C   0  0  0  0  0  0  0  0  0  0  0  0
    0.9167    2.6208    0.0000 C   0  0  0  0  0  0  0  0  0  0  0  0
    0.5625    1.2833    0.0000 C   0  0  0  0  0  0  0  0  0  0  0  0
    1.1542    0.8208    0.0000 C   0  0  0  0  0  0  0  0  0  0  0  0
    4.8542    0.0083    0.0000 C   0  0  0  0  0  0  0  0  0  0  0  0
    0.4625    2.0250    0.0000 C   0  0  0  0  0  0  0  0  0  0  0  0
  2  1  1  0  0  0  0
  3  2  1  0  0  0  0
  4  3  1  0  0  0  0
  5  1  2  0  0  0  0
  6  1  2  0  0  0  0
  7  4  1  0  0  0  0
  8  4  2  0  0  0  0
  9  2  1  0  0  0  0
 10  1  1  0  0  0  0
 11  7  1  0  0  0  0
 12  9  1  0  0  0  0
 13  9  1  0  0  0  0
 14 11  1  0  0  0  0
 15 11  1  0  0  0  0
 16 13  1  0  0  0  0
 17 12  1  0  0  0  0
 18 15  1  0  0  0  0
 19 14  1  0  0  0  0
 20 21  1  0  0  0  0
 21 18  1  0  0  0  0
 22 16  1  0  0  0  0
 23 19  1  0  0  0  0
 17 22  1  0  0  0  0
 20 23  1  0  0  0  0
M  END
>  <ID> (7996016)
7996016

>  <Supplier> (7996016)
ChemBridge

>  <clogP> (7996016)
4.090000000000000e+000

>  <RB> (7996016)
4

>  <tPSA> (7996016)
6.647999999999998e+001

>  <Hacc> (7996016)
4

>  <Hdon> (7996016)
1

>  <LogSw> (7996016)
-5.205000000000000e+000

>  <Group> (7996016)
3

>  <Core> (7996016)
084

$$$$
9081958
  -ISIS-  03310818292D

 16 17  0  0  0  0  0  0  0  0999 V2000
    5.4000    2.4458    0.0000 N   0  0  0  0  0  0  0  0  0  0  0  0
    4.9542    1.8375    0.0000 C   0  0  0  0  0  0  0  0  0  0  0  0
    5.4000    1.2333    0.0000 N   0  0  0  0  0  0  0  0  0  0  0  0
    6.1125    1.4625    0.0000 N   0  0  0  0  0  0  0  0  0  0  0  0
    6.1125    2.2125    0.0000 C   0  0  0  0  0  0  0  0  0  0  0  0
    4.2042    1.8375    0.0000 N   0  0  0  0  0  0  0  0  0  0  0  0
    1.5792    1.1958    0.0000 C   0  0  0  0  0  0  0  0  0  0  0  0
    1.9542    0.5458    0.0000 C   0  0  0  0  0  0  0  0  0  0  0  0
    1.9542    1.8375    0.0000 C   0  0  0  0  0  0  0  0  0  0  0  0
    3.8292    1.1958    0.0000 C   0  0  0  0  0  0  0  0  0  0  0  0
    3.0792    1.1958    0.0000 C   0  0  0  0  0  0  0  0  0  0  0  0
    0.8292    1.1958    0.0000 C   0  0  3  0  0  0  0  0  0  0  0  0
    2.7042    0.5458    0.0000 C   0  0  0  0  0  0  0  0  0  0  0  0
    2.7042    1.8375    0.0000 C   0  0  0  0  0  0  0  0  0  0  0  0
    0.4542    1.8375    0.0000 C   0  0  0  0  0  0  0  0  0  0  0  0
    0.4542    0.5458    0.0000 C   0  0  0  0  0  0  0  0  0  0  0  0
  2  1  1  0  0  0  0
  3  2  2  0  0  0  0
  4  5  1  0  0  0  0
  5  1  2  0  0  0  0
  6  2  1  0  0  0  0
  7  9  1  0  0  0  0
  8 13  1  0  0  0  0
  9 14  2  0  0  0  0
 10  6  1  0  0  0  0
 11 10  1  0  0  0  0
 12  7  1  0  0  0  0
 13 11  2  0  0  0  0
 14 11  1  0  0  0  0
 15 12  1  0  0  0  0
 16 12  1  0  0  0  0
  3  4  1  0  0  0  0
  7  8  2  0  0  0  0
M  END
>  <ID> (9081958)
9081958

>  <Supplier> (9081958)
ChemBridge

>  <clogP> (9081958)
3.208000000000000e+000

>  <RB> (9081958)
3

>  <tPSA> (9081958)
5.359999999999999e+001

>  <Hacc> (9081958)
2

>  <Hdon> (9081958)
2

>  <LogSw> (9081958)
-3.518000000000000e+000

>  <Group> (9081958)
3

$$$$
7996012
  -ISIS-  03310818282D

 21 21  0  0  0  0  0  0  0  0999 V2000
    6.3625    2.2083    0.0000 C   0  0  0  0  0  0  0  0  0  0  0  0
    5.7125    2.5833    0.0000 N   0  0  0  0  0  0  0  0  0  0  0  0
    6.3625    1.4500    0.0000 O   0  0  0  0  0  0  0  0  0  0  0  0
    7.0125    2.5833    0.0000 C   0  0  0  0  0  0  0  0  0  0  0  0
    3.1167    1.0750    0.0000 O   0  0  0  0  0  0  0  0  0  0  0  0
    5.0625    2.2083    0.0000 C   0  0  0  0  0  0  0  0  0  0  0  0
    7.6625    2.2083    0.0000 N   0  0  3  0  0  0  0  0  0  0  0  0
    3.7667    1.4500    0.0000 C   0  0  0  0  0  0  0  0  0  0  0  0
    2.4667    1.4500    0.0000 C   0  0  0  0  0  0  0  0  0  0  0  0
    4.6292    3.5333    0.0000 Cl  0  0  0  0  0  0  0  0  0  0  0  0
    5.0625    1.4500    0.0000 C   0  0  0  0  0  0  0  0  0  0  0  0
    4.4167    2.5833    0.0000 C   0  0  0  0  0  0  0  0  0  0  0  0
    3.7667    2.2083    0.0000 C   0  0  0  0  0  0  0  0  0  0  0  0
    4.4167    1.0750    0.0000 C   0  0  0  0  0  0  0  0  0  0  0  0
    7.6625    1.4500    0.0000 C   0  0  0  0  0  0  0  0  0  0  0  0
    8.3125    2.5833    0.0000 C   0  0  0  0  0  0  0  0  0  0  0  0
    1.8167    1.0750    0.0000 C   0  0  0  0  0  0  0  0  0  0  0  0
    2.4667    2.2083    0.0000 C   0  0  0  0  0  0  0  0  0  0  0  0
    1.8167    2.5833    0.0000 C   0  0  0  0  0  0  0  0  0  0  0  0
    1.1667    1.4500    0.0000 C   0  0  0  0  0  0  0  0  0  0  0  0
    1.1667    2.2083    0.0000 C   0  0  0  0  0  0  0  0  0  0  0  0
  2  1  1  0  0  0  0
  3  1  2  0  0  0  0
  4  1  1  0  0  0  0
  5  8  1  0  0  0  0
  6  2  1  0  0  0  0
  7  4  1  0  0  0  0
  8 14  1  0  0  0  0
  9  5  1  0  0  0  0
 11  6  1  0  0  0  0
 12  6  2  0  0  0  0
 13 12  1  0  0  0  0
 14 11  2  0  0  0  0
 15  7  1  0  0  0  0
 16  7  1  0  0  0  0
 17  9  2  0  0  0  0
 18  9  1  0  0  0  0
 19 18  2  0  0  0  0
 20 17  1  0  0  0  0
 21 20  2  0  0  0  0
 13  8  2  0  0  0  0
 19 21  1  0  0  0  0
M  END
>  <ID> (7996012)
7996012

>  <Supplier> (7996012)
ChemBridge

>  <clogP> (7996012)
-1.900000000000000e-001

>  <RB> (7996012)
4

>  <tPSA> (7996012)
4.156999999999997e+001

>  <Hacc> (7996012)
3

>  <Hdon> (7996012)
1

>  <LogSw> (7996012)
-2.320000000000000e+000

>  <Group> (7996012)
2

$$$$
6453920
  -ISIS-  03310818242D

 21 22  0  0  0  0  0  0  0  0999 V2000
   -4.2333    0.8208    0.0000 C   0  0  0  0  0  0  0  0  0  0  0  0
   -4.2333    1.4958    0.0000 C   0  0  0  0  0  0  0  0  0  0  0  0
   -3.6625    0.4833    0.0000 C   0  0  0  0  0  0  0  0  0  0  0  0
   -3.6625    1.8333    0.0000 C   0  0  0  0  0  0  0  0  0  0  0  0
   -3.0833    0.8208    0.0000 C   0  0  0  0  0  0  0  0  0  0  0  0
   -3.0833    1.4958    0.0000 C   0  0  0  0  0  0  0  0  0  0  0  0
    0.3000    2.4125    0.0000 C   0  0  0  0  0  0  0  0  0  0  0  0
    0.1167    1.7000    0.0000 C   0  0  0  0  0  0  0  0  0  0  0  0
   -4.6625    0.5708    0.0000 Cl  0  0  0  0  0  0  0  0  0  0  0  0
    0.0500    2.6958    0.0000 O   0  0  0  0  0  0  0  0  0  0  0  0
   -2.3625    1.8708    0.0000 O   0  0  0  0  0  0  0  0  0  0  0  0
   -0.5000    1.5458    0.0000 O   0  0  0  0  0  0  0  0  0  0  0  0
   -4.6833    1.7000    0.0000 C   0  0  0  0  0  0  0  0  0  0  0  0
   -3.6333    0.1000    0.0000 C   0  0  0  0  0  0  0  0  0  0  0  0
    0.6375    1.1958    0.0000 C   0  0  0  0  0  0  0  0  0  0  0  0
    1.0042    2.6000    0.0000 C   0  0  0  0  0  0  0  0  0  0  0  0
   -0.8625    1.8958    0.0000 C   0  0  0  0  0  0  0  0  0  0  0  0
   -1.6625    1.4458    0.0000 C   0  0  0  0  0  0  0  0  0  0  0  0
    0.2375    3.1458    0.0000 C   0  0  0  0  0  0  0  0  0  0  0  0
    1.5292    2.0833    0.0000 C   0  0  0  0  0  0  0  0  0  0  0  0
    1.3500    1.3833    0.0000 C   0  0  0  0  0  0  0  0  0  0  0  0
  2  1  1  0  0  0  0
  3  1  2  0  0  0  0
  4  2  2  0  0  0  0
  5  3  1  0  0  0  0
  6  5  2  0  0  0  0
  7  8  2  0  0  0  0
  8 12  1  0  0  0  0
  9  1  1  0  0  0  0
 10  7  1  0  0  0  0
 11  6  1  0  0  0  0
 12 17  1  0  0  0  0
 13  2  1  0  0  0  0
 14  3  1  0  0  0  0
 15  8  1  0  0  0  0
 16  7  1  0  0  0  0
 17 18  1  0  0  0  0
 18 11  1  0  0  0  0
 19 10  1  0  0  0  0
 20 21  1  0  0  0  0
 21 15  2  0  0  0  0
  6  4  1  0  0  0  0
 20 16  2  0  0  0  0
M  END
>  <ID> (6453920)
6453920

>  <Supplier> (6453920)
ChemBridge

>  <clogP> (6453920)
5.410000000000000e+000

>  <RB> (6453920)
5

>  <tPSA> (6453920)
2.769000000000000e+001

>  <Hacc> (6453920)
3

>  <Hdon> (6453920)
0

>  <LogSw> (6453920)
-6.058000000000000e+000

>  <Group> (6453920)
1

>  <Core> (6453920)
319

$$$$
7996010
  -ISIS-  03310818282D

 22 24  0  0  0  0  0  0  0  0999 V2000
    4.6875    1.4250    0.0000 N   0  0  0  0  0  0  0  0  0  0  0  0
    5.1250    2.0333    0.0000 C   0  0  0  0  0  0  0  0  0  0  0  0
    4.6875    2.6458    0.0000 N   0  0  0  0  0  0  0  0  0  0  0  0
    3.9667    1.6583    0.0000 C   0  0  0  0  0  0  0  0  0  0  0  0
    3.9667    2.4083    0.0000 O   0  0  0  0  0  0  0  0  0  0  0  0
    5.8750    2.0333    0.0000 C   0  0  0  0  0  0  0  0  0  0  0  0
    2.6792    1.5208    0.0000 O   0  0  0  0  0  0  0  0  0  0  0  0
    6.2500    1.3833    0.0000 C   0  0  0  0  0  0  0  0  0  0  0  0
    2.0667    1.0833    0.0000 C   0  0  0  0  0  0  0  0  0  0  0  0
    3.3667    1.2208    0.0000 C   0  0  0  0  0  0  0  0  0  0  0  0
    1.3875    1.3875    0.0000 C   0  0  0  0  0  0  0  0  0  0  0  0
    7.0000    1.3833    0.0000 C   0  0  0  0  0  0  0  0  0  0  0  0
    7.3750    0.7333    0.0000 O   0  0  0  0  0  0  0  0  0  0  0  0
    6.2500    2.6833    0.0000 C   0  0  0  0  0  0  0  0  0  0  0  0
    7.0000    2.6833    0.0000 C   0  0  0  0  0  0  0  0  0  0  0  0
    2.1542    0.3333    0.0000 C   0  0  0  0  0  0  0  0  0  0  0  0
    1.3125    2.1333    0.0000 C   0  0  0  0  0  0  0  0  0  0  0  0
    0.7792    0.9458    0.0000 C   0  0  0  0  0  0  0  0  0  0  0  0
    7.3750    2.0333    0.0000 C   0  0  0  0  0  0  0  0  0  0  0  0
    8.1250    0.7333    0.0000 C   0  0  0  0  0  0  0  0  0  0  0  0
    0.8625    0.2000    0.0000 C   0  0  0  0  0  0  0  0  0  0  0  0
    1.5417   -0.1042    0.0000 C   0  0  0  0  0  0  0  0  0  0  0  0
  2  1  1  0  0  0  0
  3  2  2  0  0  0  0
  4  1  2  0  0  0  0
  5  4  1  0  0  0  0
  6  2  1  0  0  0  0
  7 10  1  0  0  0  0
  8  6  1  0  0  0  0
  9  7  1  0  0  0  0
 10  4  1  0  0  0  0
 11  9  1  0  0  0  0
 12  8  2  0  0  0  0
 13 12  1  0  0  0  0
 14  6  2  0  0  0  0
 15 14  1  0  0  0  0
 16  9  2  0  0  0  0
 17 11  1  0  0  0  0
 18 11  2  0  0  0  0
 19 15  2  0  0  0  0
 20 13  1  0  0  0  0
 21 22  2  0  0  0  0
 22 16  1  0  0  0  0
  5  3  1  0  0  0  0
 19 12  1  0  0  0  0
 18 21  1  0  0  0  0
M  END
>  <ID> (7996010)
7996010

>  <Supplier> (7996010)
ChemBridge

>  <clogP> (7996010)
3.820000000000000e+000

>  <RB> (7996010)
4

>  <tPSA> (7996010)
5.738000000000000e+001

>  <Hacc> (7996010)
5

>  <Hdon> (7996010)
0

>  <LogSw> (7996010)
-4.623999999999998e+000

>  <Group> (7996010)
2

>  <Core> (7996010)
201

$$$$
5938227
  -ISIS-  03310818232D

 18 19  0  0  0  0  0  0  0  0999 V2000
   -3.1000    0.1000    0.0000 N   0  0  3  0  0  0  0  0  0  0  0  0
   -3.6000   -1.1375    0.0000 C   0  0  0  0  0  0  0  0  0  0  0  0
   -4.1000    0.9625    0.0000 C   0  0  0  0  0  0  0  0  0  0  0  0
   -1.8458    0.5458    0.0000 N   0  0  0  0  0  0  0  0  0  0  0  0
   -4.9458   -1.0167    0.0000 S   0  0  0  0  0  0  0  0  0  0  0  0
   -5.2458    0.2625    0.0000 C   0  0  0  0  0  0  0  0  0  0  0  0
   -2.9000   -2.3000    0.0000 S   0  0  0  0  0  0  0  0  0  0  0  0
   -0.8458   -0.3375    0.0000 C   0  0  0  0  0  0  0  0  0  0  0  0
    1.4375   -0.7792    0.0000 C   0  0  0  0  0  0  0  0  0  0  0  0
    0.4167    0.1000    0.0000 C   0  0  0  0  0  0  0  0  0  0  0  0
   -4.0000    2.3000    0.0000 O   0  0  0  0  0  0  0  0  0  0  0  0
    2.7000   -0.3167    0.0000 C   0  0  0  0  0  0  0  0  0  0  0  0
    0.6792    1.4208    0.0000 C   0  0  0  0  0  0  0  0  0  0  0  0
    3.7167   -1.1792    0.0000 C   0  0  0  0  0  0  0  0  0  0  0  0
    2.9375    1.0000    0.0000 C   0  0  0  0  0  0  0  0  0  0  0  0
    4.9792   -0.7375    0.0000 C   0  0  0  0  0  0  0  0  0  0  0  0
    4.1792    1.4625    0.0000 C   0  0  0  0  0  0  0  0  0  0  0  0
    5.2167    0.6000    0.0000 C   0  0  0  0  0  0  0  0  0  0  0  0
  2  1  1  0  0  0  0
  3  1  1  0  0  0  0
  4  1  1  0  0  0  0
  5  2  1  0  0  0  0
  6  3  1  0  0  0  0
  7  2  2  0  0  0  0
  8  4  2  0  0  0  0
  9 10  2  0  0  0  0
 10  8  1  0  0  0  0
 11  3  2  0  0  0  0
 12  9  1  0  0  0  0
 13 10  1  0  0  0  0
 14 12  2  0  0  0  0
 15 12  1  0  0  0  0
 16 14  1  0  0  0  0
 17 15  2  0  0  0  0
 18 17  1  0  0  0  0
  6  5  1  0  0  0  0
 18 16  2  0  0  0  0
M  END
>  <ID> (5938227)
5938227

>  <Supplier> (5938227)
ChemBridge

>  <clogP> (5938227)
3.290000000000000e+000

>  <RB> (5938227)
3

>  <tPSA> (5938227)
3.267000000000000e+001

>  <Hacc> (5938227)
2

>  <Hdon> (5938227)
0

>  <LogSw> (5938227)
-4.026000000000000e+000

>  <Group> (5938227)
3

$$$$
5404875
  -ISIS-  03310818222D

 21 22  0  0  0  0  0  0  0  0999 V2000
    1.5375   -0.0542    0.0000 C   0  0  0  0  0  0  0  0  0  0  0  0
    0.8000    0.3625    0.0000 C   0  0  0  0  0  0  0  0  0  0  0  0
   -2.8458   -0.0792    0.0000 C   0  0  0  0  0  0  0  0  0  0  0  0
   -2.1208    0.3625    0.0000 C   0  0  0  0  0  0  0  0  0  0  0  0
    2.2667    0.3625    0.0000 C   0  0  0  0  0  0  0  0  0  0  0  0
    0.8000    1.2000    0.0000 O   0  0  0  0  0  0  0  0  0  0  0  0
   -1.4000   -0.0792    0.0000 C   0  0  0  0  0  0  0  0  0  0  0  0
    0.0792   -0.0542    0.0000 N   0  0  0  0  0  0  0  0  0  0  0  0
   -2.8458   -0.9167    0.0000 O   0  0  0  0  0  0  0  0  0  0  0  0
   -3.5625    0.3625    0.0000 C   0  0  0  0  0  0  0  0  0  0  0  0
   -0.6625    0.3625    0.0000 N   0  0  0  0  0  0  0  0  0  0  0  0
    2.2667    1.2000    0.0000 O   0  0  0  0  0  0  0  0  0  0  0  0
    1.5375   -0.9000    0.0000 C   0  0  0  0  0  0  0  0  0  0  0  0
    3.0000   -0.0542    0.0000 C   0  0  0  0  0  0  0  0  0  0  0  0
   -4.3000   -0.0792    0.0000 C   0  0  0  0  0  0  0  0  0  0  0  0
   -3.5625    1.2000    0.0000 C   0  0  0  0  0  0  0  0  0  0  0  0
    2.2667   -1.3167    0.0000 C   0  0  0  0  0  0  0  0  0  0  0  0
   -4.2833    1.6208    0.0000 C   0  0  0  0  0  0  0  0  0  0  0  0
    3.0000   -0.9000    0.0000 C   0  0  0  0  0  0  0  0  0  0  0  0
   -5.0208    0.3625    0.0000 C   0  0  0  0  0  0  0  0  0  0  0  0
   -5.0000    1.2000    0.0000 C   0  0  0  0  0  0  0  0  0  0  0  0
  2  1  1  0  0  0  0
  3  4  1  0  0  0  0
  4  7  2  0  0  0  0
  5  1  1  0  0  0  0
  6  2  2  0  0  0  0
  7 11  1  0  0  0  0
  8  2  1  0  0  0  0
  9  3  2  0  0  0  0
 10  3  1  0  0  0  0
 11  8  1  0  0  0  0
 12  5  1  0  0  0  0
 13  1  2  0  0  0  0
 14  5  2  0  0  0  0
 15 10  1  0  0  0  0
 16 10  2  0  0  0  0
 17 13  1  0  0  0  0
 18 16  1  0  0  0  0
 19 17  2  0  0  0  0
 20 15  2  0  0  0  0
 21 18  2  0  0  0  0
 19 14  1  0  0  0  0
 21 20  1  0  0  0  0
M  END
>  <ID> (5404875)
5404875

>  <Supplier> (5404875)
ChemBridge

>  <clogP> (5404875)
2.640000000000000e+000

>  <RB> (5404875)
5

>  <tPSA> (5404875)
7.843000000000001e+001

>  <Hacc> (5404875)
3

>  <Hdon> (5404875)
3

>  <LogSw> (5404875)
-2.934000000000000e+000

>  <Group> (5404875)
1

>  <Core> (5404875)
207

$$$$
5125564
  -ISIS-  03310818212D

 14 15  0  0  0  0  0  0  0  0999 V2000
   -0.5708    1.3833    0.0000 C   0  0  0  0  0  0  0  0  0  0  0  0
   -0.5708    2.0458    0.0000 N   0  0  0  0  0  0  0  0  0  0  0  0
   -1.1500    1.0500    0.0000 N   0  0  0  0  0  0  0  0  0  0  0  0
   -1.7333    2.0458    0.0000 C   0  0  0  0  0  0  0  0  0  0  0  0
   -1.7333    1.3833    0.0000 C   0  0  0  0  0  0  0  0  0  0  0  0
    0.0500    1.0333    0.0000 S   0  0  0  0  0  0  0  0  0  0  0  0
   -2.3125    2.3708    0.0000 C   0  0  0  0  0  0  0  0  0  0  0  0
   -2.3125    1.0500    0.0000 C   0  0  0  0  0  0  0  0  0  0  0  0
    0.6542    1.3958    0.0000 C   0  0  0  0  0  0  0  0  0  0  0  0
    1.2667    1.0500    0.0000 C   0  0  0  0  0  0  0  0  0  0  0  0
    1.8667    1.4125    0.0000 C   0  0  0  0  0  0  0  0  0  0  0  0
   -2.8958    2.0458    0.0000 C   0  0  0  0  0  0  0  0  0  0  0  0
   -2.8958    1.3833    0.0000 C   0  0  0  0  0  0  0  0  0  0  0  0
    1.8542    2.1125    0.0000 C   0  0  0  0  0  0  0  0  0  0  0  0
  2  1  2  0  0  0  0
  3  1  1  0  0  0  0
  4  2  1  0  0  0  0
  5  3  1  0  0  0  0
  6  1  1  0  0  0  0
  7  4  1  0  0  0  0
  8  5  1  0  0  0  0
  9  6  1  0  0  0  0
 10  9  1  0  0  0  0
 11 10  1  0  0  0  0
 12  7  2  0  0  0  0
 13  8  2  0  0  0  0
 14 11  1  0  0  0  0
  5  4  2  0  0  0  0
 13 12  1  0  0  0  0
M  END
>  <ID> (5125564)
5125564

>  <Supplier> (5125564)
ChemBridge

>  <clogP> (5125564)
4.109999999999999e+000

>  <RB> (5125564)
2

>  <tPSA> (5125564)
2.868000000000000e+001

>  <Hacc> (5125564)
1

>  <Hdon> (5125564)
1

>  <LogSw> (5125564)
-4.216000000000000e+000

>  <Group> (5125564)
2

>  <Core> (5125564)
031

$$$$
5125563
  -ISIS-  03310818212D

 14 15  0  0  0  0  0  0  0  0999 V2000
   -0.5708    1.3833    0.0000 C   0  0  0  0  0  0  0  0  0  0  0  0
   -0.5708    2.0458    0.0000 N   0  0  0  0  0  0  0  0  0  0  0  0
   -1.1500    1.0500    0.0000 N   0  0  0  0  0  0  0  0  0  0  0  0
   -1.7333    2.0458    0.0000 C   0  0  0  0  0  0  0  0  0  0  0  0
   -1.7333    1.3833    0.0000 C   0  0  0  0  0  0  0  0  0  0  0  0
    0.0500    1.0333    0.0000 S   0  0  0  0  0  0  0  0  0  0  0  0
    1.2667    1.0500    0.0000 C   0  0  0  0  0  0  0  0  0  0  0  0
    1.2792    0.3500    0.0000 C   0  0  0  0  0  0  0  0  0  0  0  0
    0.6542    1.3958    0.0000 C   0  0  0  0  0  0  0  0  0  0  0  0
    1.8667    1.4125    0.0000 Br  0  0  0  0  0  0  0  0  0  0  0  0
   -2.3125    2.3708    0.0000 C   0  0  0  0  0  0  0  0  0  0  0  0
   -2.3125    1.0500    0.0000 C   0  0  0  0  0  0  0  0  0  0  0  0
   -2.8958    1.3833    0.0000 C   0  0  0  0  0  0  0  0  0  0  0  0
   -2.8958    2.0458    0.0000 C   0  0  0  0  0  0  0  0  0  0  0  0
  2  1  2  0  0  0  0
  3  1  1  0  0  0  0
  4  2  1  0  0  0  0
  5  3  1  0  0  0  0
  6  1  1  0  0  0  0
  7  9  1  0  0  0  0
  8  7  2  0  0  0  0
  9  6  1  0  0  0  0
 10  7  1  0  0  0  0
 11  4  1  0  0  0  0
 12  5  1  0  0  0  0
 13 12  2  0  0  0  0
 14 11  2  0  0  0  0
  5  4  2  0  0  0  0
 13 14  1  0  0  0  0
M  END
>  <ID> (5125563)
5125563

>  <Supplier> (5125563)
ChemBridge

>  <clogP> (5125563)
3.990000000000000e+000

>  <RB> (5125563)
3

>  <tPSA> (5125563)
2.868000000000000e+001

>  <Hacc> (5125563)
1

>  <Hdon> (5125563)
1

>  <LogSw> (5125563)
-4.571000000000002e+000

>  <Group> (5125563)
3

>  <Core> (5125563)
031

$$$$
5404872
  -ISIS-  03310818222D

 18 19  0  0  0  0  0  0  0  0999 V2000
   -2.1208    0.3625    0.0000 C   0  0  0  0  0  0  0  0  0  0  0  0
   -2.8458   -0.0792    0.0000 C   0  0  0  0  0  0  0  0  0  0  0  0
   -1.4000   -0.0792    0.0000 C   0  0  0  0  0  0  0  0  0  0  0  0
   -2.8458   -0.9167    0.0000 O   0  0  0  0  0  0  0  0  0  0  0  0
   -3.5625    0.3625    0.0000 C   0  0  0  0  0  0  0  0  0  0  0  0
   -0.6625    0.3625    0.0000 N   0  0  0  0  0  0  0  0  0  0  0  0
    0.0792   -0.0542    0.0000 C   0  0  0  0  0  0  0  0  0  0  0  0
    1.5375   -0.9000    0.0000 C   0  0  0  0  0  0  0  0  0  0  0  0
    2.2792   -1.3042    0.0000 Br  0  0  0  0  0  0  0  0  0  0  0  0
    0.8000    0.3625    0.0000 C   0  0  0  0  0  0  0  0  0  0  0  0
    0.0667   -0.9042    0.0000 C   0  0  0  0  0  0  0  0  0  0  0  0
    1.5375   -0.0542    0.0000 C   0  0  0  0  0  0  0  0  0  0  0  0
    0.8042   -1.3292    0.0000 C   0  0  0  0  0  0  0  0  0  0  0  0
   -3.5625    1.2000    0.0000 C   0  0  0  0  0  0  0  0  0  0  0  0
   -4.3000   -0.0792    0.0000 C   0  0  0  0  0  0  0  0  0  0  0  0
   -4.2833    1.6208    0.0000 C   0  0  0  0  0  0  0  0  0  0  0  0
   -5.0208    0.3625    0.0000 C   0  0  0  0  0  0  0  0  0  0  0  0
   -5.0000    1.2000    0.0000 C   0  0  0  0  0  0  0  0  0  0  0  0
  2  1  1  0  0  0  0
  3  1  2  0  0  0  0
  4  2  2  0  0  0  0
  5  2  1  0  0  0  0
  6  3  1  0  0  0  0
  7  6  1  0  0  0  0
  8 13  1  0  0  0  0
  9  8  1  0  0  0  0
 10  7  2  0  0  0  0
 11  7  1  0  0  0  0
 12 10  1  0  0  0  0
 13 11  2  0  0  0  0
 14  5  2  0  0  0  0
 15  5  1  0  0  0  0
 16 14  1  0  0  0  0
 17 15  2  0  0  0  0
 18 17  1  0  0  0  0
  8 12  2  0  0  0  0
 18 16  2  0  0  0  0
M  END
>  <ID> (5404872)
5404872

>  <Supplier> (5404872)
ChemBridge

>  <clogP> (5404872)
4.670000000000000e+000

>  <RB> (5404872)
4

>  <tPSA> (5404872)
2.910000000000000e+001

>  <Hacc> (5404872)
1

>  <Hdon> (5404872)
1

>  <LogSw> (5404872)
-5.392000000000000e+000

>  <Group> (5404872)
1

>  <Core> (5404872)
207

$$$$
5404879
  -ISIS-  03310818222D

 19 20  0  0  0  0  0  0  0  0999 V2000
   -2.1208    0.3625    0.0000 C   0  0  0  0  0  0  0  0  0  0  0  0
   -2.8458   -0.0792    0.0000 C   0  0  0  0  0  0  0  0  0  0  0  0
   -1.4000   -0.0792    0.0000 C   0  0  0  0  0  0  0  0  0  0  0  0
   -3.5625    0.3625    0.0000 C   0  0  0  0  0  0  0  0  0  0  0  0
   -2.8458   -0.9167    0.0000 O   0  0  0  0  0  0  0  0  0  0  0  0
   -0.6625    0.3625    0.0000 N   0  0  0  0  0  0  0  0  0  0  0  0
   -4.3000   -0.0792    0.0000 C   0  0  0  0  0  0  0  0  0  0  0  0
   -3.5625    1.2000    0.0000 C   0  0  0  0  0  0  0  0  0  0  0  0
    0.1000   -0.0542    0.0000 C   0  0  0  0  0  0  0  0  0  0  0  0
   -5.0000    1.2000    0.0000 C   0  0  0  0  0  0  0  0  0  0  0  0
    1.5792    0.8000    0.0000 C   0  0  0  0  0  0  0  0  0  0  0  0
   -5.0208    0.3625    0.0000 C   0  0  0  0  0  0  0  0  0  0  0  0
   -4.2833    1.6208    0.0000 C   0  0  0  0  0  0  0  0  0  0  0  0
   -5.7333    1.6125    0.0000 Cl  0  0  0  0  0  0  0  0  0  0  0  0
    2.2875    1.2333    0.0000 I   0  0  0  0  0  0  0  0  0  0  0  0
    0.8375   -0.4875    0.0000 C   0  0  0  0  0  0  0  0  0  0  0  0
    0.1000    0.7833    0.0000 C   0  0  0  0  0  0  0  0  0  0  0  0
    0.8375    1.2125    0.0000 C   0  0  0  0  0  0  0  0  0  0  0  0
    1.5792   -0.0542    0.0000 C   0  0  0  0  0  0  0  0  0  0  0  0
  2  1  1  0  0  0  0
  3  1  2  0  0  0  0
  4  2  1  0  0  0  0
  5  2  2  0  0  0  0
  6  3  1  0  0  0  0
  7  4  1  0  0  0  0
  8  4  2  0  0  0  0
  9  6  1  0  0  0  0
 10 13  2  0  0  0  0
 11 18  1  0  0  0  0
 12  7  2  0  0  0  0
 13  8  1  0  0  0  0
 14 10  1  0  0  0  0
 15 11  1  0  0  0  0
 16  9  2  0  0  0  0
 17  9  1  0  0  0  0
 18 17  2  0  0  0  0
 19 16  1  0  0  0  0
 10 12  1  0  0  0  0
 11 19  2  0  0  0  0
M  END
>  <ID> (5404879)
5404879

>  <Supplier> (5404879)
ChemBridge

>  <clogP> (5404879)
5.720000000000000e+000

>  <RB> (5404879)
4

>  <tPSA> (5404879)
2.910000000000000e+001

>  <Hacc> (5404879)
1

>  <Hdon> (5404879)
1

>  <LogSw> (5404879)
-6.882000000000000e+000

>  <Group> (5404879)
1

>  <Core> (5404879)
207

$$$$
5404878
  -ISIS-  03310818222D

 19 20  0  0  0  0  0  0  0  0999 V2000
   -2.8458   -0.0792    0.0000 C   0  0  0  0  0  0  0  0  0  0  0  0
   -2.1208    0.3625    0.0000 C   0  0  0  0  0  0  0  0  0  0  0  0
   -3.5625    0.3625    0.0000 C   0  0  0  0  0  0  0  0  0  0  0  0
   -1.4000   -0.0792    0.0000 C   0  0  0  0  0  0  0  0  0  0  0  0
   -2.8458   -0.9167    0.0000 O   0  0  0  0  0  0  0  0  0  0  0  0
   -3.5625    1.2000    0.0000 C   0  0  0  0  0  0  0  0  0  0  0  0
   -4.3000   -0.0792    0.0000 C   0  0  0  0  0  0  0  0  0  0  0  0
   -0.6625    0.3625    0.0000 N   0  0  0  0  0  0  0  0  0  0  0  0
   -5.0000    1.2000    0.0000 C   0  0  0  0  0  0  0  0  0  0  0  0
   -5.0208    0.3625    0.0000 C   0  0  0  0  0  0  0  0  0  0  0  0
   -4.2833    1.6208    0.0000 C   0  0  0  0  0  0  0  0  0  0  0  0
   -5.7333    1.6125    0.0000 Cl  0  0  0  0  0  0  0  0  0  0  0  0
    0.8000    0.3625    0.0000 C   0  0  0  0  0  0  0  0  0  0  0  0
    0.0792   -0.0542    0.0000 C   0  0  0  0  0  0  0  0  0  0  0  0
    1.5375   -0.0542    0.0000 C   0  0  0  0  0  0  0  0  0  0  0  0
    0.8000    1.2125    0.0000 C   0  0  0  0  0  0  0  0  0  0  0  0
    1.5167    1.6333    0.0000 C   0  0  0  0  0  0  0  0  0  0  0  0
    2.2542    0.3625    0.0000 C   0  0  0  0  0  0  0  0  0  0  0  0
    2.2542    1.2208    0.0000 C   0  0  0  0  0  0  0  0  0  0  0  0
  2  1  1  0  0  0  0
  3  1  1  0  0  0  0
  4  2  2  0  0  0  0
  5  1  2  0  0  0  0
  6  3  2  0  0  0  0
  7  3  1  0  0  0  0
  8  4  1  0  0  0  0
  9 10  1  0  0  0  0
 10  7  2  0  0  0  0
 11  6  1  0  0  0  0
 12  9  1  0  0  0  0
 13 14  1  0  0  0  0
 14  8  1  0  0  0  0
 15 13  2  0  0  0  0
 16 13  1  0  0  0  0
 17 16  2  0  0  0  0
 18 15  1  0  0  0  0
 19 17  1  0  0  0  0
  9 11  2  0  0  0  0
 18 19  2  0  0  0  0
M  END
>  <ID> (5404878)
5404878

>  <Supplier> (5404878)
ChemBridge

>  <clogP> (5404878)
4.790000000000000e+000

>  <RB> (5404878)
5

>  <tPSA> (5404878)
2.910000000000000e+001

>  <Hacc> (5404878)
1

>  <Hdon> (5404878)
1

>  <LogSw> (5404878)
-4.265000000000000e+000

>  <Group> (5404878)
3

>  <Core> (5404878)
207

$$$$
7967242
  -ISIS-  03310818282D

 21 22  0  0  0  0  0  0  0  0999 V2000
    2.7792    1.4333    0.0000 C   0  0  0  0  0  0  0  0  0  0  0  0
    6.1542    0.7833    0.0000 C   0  0  0  0  0  0  0  0  0  0  0  0
    2.4042    2.0833    0.0000 N   0  0  0  0  0  0  0  0  0  0  0  0
    5.7792    1.4333    0.0000 N   0  0  0  0  0  0  0  0  0  0  0  0
    3.5292    1.4333    0.0000 C   0  0  0  0  0  0  0  0  0  0  0  0
    6.9042    0.7833    0.0000 C   0  0  3  0  0  0  0  0  0  0  0  0
    2.4042    0.7833    0.0000 O   0  0  0  0  0  0  0  0  0  0  0  0
    5.7792    0.1333    0.0000 O   0  0  0  0  0  0  0  0  0  0  0  0
    1.6542    2.0833    0.0000 C   0  0  3  0  0  0  0  0  0  0  0  0
    7.3500    0.1708    0.0000 O   0  0  0  0  0  0  0  0  0  0  0  0
    3.9042    0.7833    0.0000 C   0  0  0  0  0  0  0  0  0  0  0  0
    3.9042    2.0833    0.0000 C   0  0  0  0  0  0  0  0  0  0  0  0
    5.0292    1.4333    0.0000 C   0  0  0  0  0  0  0  0  0  0  0  0
    4.6542    2.0833    0.0000 C   0  0  0  0  0  0  0  0  0  0  0  0
    4.6542    0.7833    0.0000 C   0  0  0  0  0  0  0  0  0  0  0  0
    8.0625    0.4083    0.0000 C   0  0  0  0  0  0  0  0  0  0  0  0
    1.4667    2.8000    0.0000 C   0  0  0  0  0  0  0  0  0  0  0  0
    0.9167    1.9458    0.0000 C   0  0  0  0  0  0  0  0  0  0  0  0
    1.7250    1.3333    0.0000 C   0  0  0  0  0  0  0  0  0  0  0  0
    7.3500    1.3833    0.0000 C   0  0  0  0  0  0  0  0  0  0  0  0
    8.0625    1.1583    0.0000 C   0  0  0  0  0  0  0  0  0  0  0  0
  2  4  1  0  0  0  0
  3  1  1  0  0  0  0
  4 13  1  0  0  0  0
  5  1  1  0  0  0  0
  6  2  1  0  0  0  0
  7  1  2  0  0  0  0
  8  2  2  0  0  0  0
  9  3  1  0  0  0  0
 10  6  1  0  0  0  0
 11  5  1  0  0  0  0
 12  5  2  0  0  0  0
 13 14  2  0  0  0  0
 14 12  1  0  0  0  0
 15 11  2  0  0  0  0
 16 10  1  0  0  0  0
 17  9  1  0  0  0  0
 18  9  1  0  0  0  0
 19  9  1  0  0  0  0
 20  6  1  0  0  0  0
 21 20  1  0  0  0  0
 13 15  1  0  0  0  0
 21 16  1  0  0  0  0
M  END
>  <ID> (7967242)
7967242

>  <Supplier> (7967242)
ChemBridge

>  <clogP> (7967242)
1.660000000000000e+000

>  <RB> (7967242)
4

>  <tPSA> (7967242)
6.743000000000001e+001

>  <Hacc> (7967242)
3

>  <Hdon> (7967242)
2

>  <LogSw> (7967242)
-2.735000000000000e+000

>  <Group> (7967242)
2

>  <Core> (7967242)
150

$$$$
5193909
  -ISIS-  03310818212D

 22 23  0  0  0  0  0  0  0  0999 V2000
   -3.0708    1.5500    0.0000 C   0  0  0  0  0  0  0  0  0  0  0  0
    3.0542   -1.5542    0.0000 C   0  0  0  0  0  0  0  0  0  0  0  0
   -0.4458   -0.0042    0.0000 N   0  0  0  0  0  0  0  0  0  0  0  0
    0.4167   -0.0042    0.0000 N   0  0  0  0  0  0  0  0  0  0  0  0
    3.5500   -0.8167    0.0000 C   0  0  0  0  0  0  0  0  0  0  0  0
   -3.5625    0.8208    0.0000 C   0  0  0  0  0  0  0  0  0  0  0  0
    2.1792   -1.5167    0.0000 C   0  0  0  0  0  0  0  0  0  0  0  0
   -2.2000    1.5333    0.0000 C   0  0  0  0  0  0  0  0  0  0  0  0
    3.1042   -0.0292    0.0000 C   0  0  0  0  0  0  0  0  0  0  0  0
   -3.1333    0.0333    0.0000 C   0  0  0  0  0  0  0  0  0  0  0  0
    1.7667   -0.7667    0.0000 C   0  0  0  0  0  0  0  0  0  0  0  0
   -1.7833    0.7625    0.0000 C   0  0  0  0  0  0  0  0  0  0  0  0
    0.8667   -0.7667    0.0000 C   0  0  0  0  0  0  0  0  0  0  0  0
   -0.8833    0.7708    0.0000 C   0  0  0  0  0  0  0  0  0  0  0  0
   -3.5333    2.3125    0.0000 O   0  0  0  0  0  0  0  0  0  0  0  0
    3.5167   -2.3042    0.0000 O   0  0  0  0  0  0  0  0  0  0  0  0
   -2.2500    0.0333    0.0000 C   0  0  0  0  0  0  0  0  0  0  0  0
    2.2292   -0.0292    0.0000 C   0  0  0  0  0  0  0  0  0  0  0  0
    4.4000   -0.8500    0.0000 O   0  0  0  0  0  0  0  0  0  0  0  0
   -4.4208    0.8500    0.0000 O   0  0  0  0  0  0  0  0  0  0  0  0
    4.7875   -1.6292    0.0000 C   0  0  0  0  0  0  0  0  0  0  0  0
   -4.8125    1.6208    0.0000 C   0  0  0  0  0  0  0  0  0  0  0  0
  2  7  2  0  0  0  0
  3 14  2  0  0  0  0
  4  3  1  0  0  0  0
  5  9  2  0  0  0  0
  6  1  1  0  0  0  0
  7 11  1  0  0  0  0
  8  1  2  0  0  0  0
  9 18  1  0  0  0  0
 10  6  2  0  0  0  0
 11 13  1  0  0  0  0
 12  8  1  0  0  0  0
 13  4  2  0  0  0  0
 14 12  1  0  0  0  0
 15  1  1  0  0  0  0
 16  2  1  0  0  0  0
 17 12  2  0  0  0  0
 18 11  2  0  0  0  0
 19  5  1  0  0  0  0
 20  6  1  0  0  0  0
 21 19  1  0  0  0  0
 22 20  1  0  0  0  0
 17 10  1  0  0  0  0
  5  2  1  0  0  0  0
M  END
>  <ID> (5193909)
5193909

>  <Supplier> (5193909)
ChemBridge

>  <clogP> (5193909)
2.070000000000000e+000

>  <RB> (5193909)
3

>  <tPSA> (5193909)
8.364000000000003e+001

>  <Hacc> (5193909)
6

>  <Hdon> (5193909)
2

>  <LogSw> (5193909)
-3.158000000000000e+000

>  <Group> (5193909)
1

$$$$
5482572
  -ISIS-  03310818222D

 20 21  0  0  0  0  0  0  0  0999 V2000
    4.2417    3.4333    0.0000 N   0  3  0  0  0  0  0  0  0  0  0  0
    2.2917    2.3083    0.0000 C   0  0  3  0  0  0  0  0  0  0  0  0
    2.2917    1.5583    0.0000 C   0  0  3  0  0  0  0  0  0  0  0  0
    1.6417    2.6833    0.0000 C   0  0  3  0  0  0  0  0  0  0  0  0
    2.9417    1.1833    0.0000 N   0  0  0  0  0  0  0  0  0  0  0  0
    3.5917    1.5583    0.0000 C   0  0  0  0  0  0  0  0  0  0  0  0
    4.2417    2.6833    0.0000 C   0  0  0  0  0  0  0  0  0  0  0  0
    1.6417    1.1833    0.0000 O   0  0  0  0  0  0  0  0  0  0  0  0
    3.5917    2.3083    0.0000 C   0  0  0  0  0  0  0  0  0  0  0  0
    0.9917    2.3083    0.0000 C   0  0  3  0  0  0  0  0  0  0  0  0
    4.8917    3.8083    0.0000 O   0  5  0  0  0  0  0  0  0  0  0  0
    3.5917    3.8083    0.0000 O   0  0  0  0  0  0  0  0  0  0  0  0
    0.9917    1.5583    0.0000 C   0  0  0  0  0  0  0  0  0  0  0  0
    4.2417    1.1833    0.0000 C   0  0  0  0  0  0  0  0  0  0  0  0
    4.8917    2.3083    0.0000 C   0  0  0  0  0  0  0  0  0  0  0  0
    4.8917    1.5583    0.0000 C   0  0  0  0  0  0  0  0  0  0  0  0
    2.9417    2.6833    0.0000 O   0  0  0  0  0  0  0  0  0  0  0  0
    1.6417    3.4333    0.0000 O   0  0  0  0  0  0  0  0  0  0  0  0
    0.3417    2.6833    0.0000 O   0  0  0  0  0  0  0  0  0  0  0  0
    4.2417    0.4333    0.0000 C   0  0  0  0  0  0  0  0  0  0  0  0
  2  3  1  0  0  0  0
  3  5  1  0  0  0  0
  4  2  1  0  0  0  0
  5  6  1  0  0  0  0
  6  9  1  0  0  0  0
  7  1  1  0  0  0  0
  8  3  1  0  0  0  0
  9  7  2  0  0  0  0
 10 13  1  0  0  0  0
 11  1  1  0  0  0  0
 12  1  2  0  0  0  0
 13  8  1  0  0  0  0
 14 16  1  0  0  0  0
 15  7  1  0  0  0  0
 16 15  2  0  0  0  0
 17  2  1  0  0  0  0
 18  4  1  0  0  0  0
 19 10  1  0  0  0  0
 20 14  1  0  0  0  0
 14  6  2  0  0  0  0
 10  4  1  0  0  0  0
M  CHG  2   1   1  11  -1
M  END
>  <ID> (5482572)
5482572

>  <Supplier> (5482572)
ChemBridge

>  <clogP> (5482572)
6.700000000000000e-001

>  <RB> (5482572)
2

>  <tPSA> (5482572)
1.250900000000000e+002

>  <Hacc> (5482572)
6

>  <Hdon> (5482572)
4

>  <LogSw> (5482572)
-1.846000000000000e+000

>  <Group> (5482572)
2

$$$$
7967241
  -ISIS-  03310818282D

 27 30  0  0  0  0  0  0  0  0999 V2000
    7.1375   -3.9792    0.0000 N   0  0  0  0  0  0  0  0  0  0  0  0
    6.4667   -4.4667    0.0000 C   0  0  0  0  0  0  0  0  0  0  0  0
    6.7167   -5.2542    0.0000 N   0  0  0  0  0  0  0  0  0  0  0  0
    7.8042   -4.4667    0.0000 C   0  0  0  0  0  0  0  0  0  0  0  0
    7.5500   -5.2542    0.0000 N   0  0  0  0  0  0  0  0  0  0  0  0
    5.6792   -4.2125    0.0000 C   0  0  0  0  0  0  0  0  0  0  0  0
   11.3875   -4.8167    0.0000 C   0  0  3  0  0  0  0  0  0  0  0  0
   10.6000   -5.0667    0.0000 N   0  0  0  0  0  0  0  0  0  0  0  0
    9.9917   -4.5167    0.0000 C   0  0  0  0  0  0  0  0  0  0  0  0
   11.5792   -3.9917    0.0000 C   0  0  3  0  0  0  0  0  0  0  0  0
    8.5917   -4.2167    0.0000 S   0  0  0  0  0  0  0  0  0  0  0  0
    5.0667   -4.7625    0.0000 C   0  0  0  0  0  0  0  0  0  0  0  0
    5.5042   -3.4000    0.0000 C   0  0  0  0  0  0  0  0  0  0  0  0
   12.0042   -5.3625    0.0000 C   0  0  0  0  0  0  0  0  0  0  0  0
    4.1000   -3.6917    0.0000 C   0  0  0  0  0  0  0  0  0  0  0  0
   11.9375   -4.9667    0.0000 C   0  0  0  0  0  0  0  0  0  0  0  0
    4.7167   -3.1417    0.0000 C   0  0  0  0  0  0  0  0  0  0  0  0
    4.2792   -4.5042    0.0000 C   0  0  0  0  0  0  0  0  0  0  0  0
   12.7417   -5.1250    0.0000 C   0  0  3  0  0  0  0  0  0  0  0  0
   10.1667   -3.7125    0.0000 O   0  0  0  0  0  0  0  0  0  0  0  0
   12.3417   -3.7542    0.0000 C   0  0  0  0  0  0  0  0  0  0  0  0
    9.2042   -4.7667    0.0000 C   0  0  0  0  0  0  0  0  0  0  0  0
   12.9542   -4.3000    0.0000 C   0  0  0  0  0  0  0  0  0  0  0  0
    3.6625   -5.0667    0.0000 O   0  0  0  0  0  0  0  0  0  0  0  0
    4.5500   -2.3292    0.0000 O   0  0  0  0  0  0  0  0  0  0  0  0
    2.8750   -4.8167    0.0000 C   0  0  0  0  0  0  0  0  0  0  0  0
    5.1625   -1.7792    0.0000 C   0  0  0  0  0  0  0  0  0  0  0  0
  2  1  1  0  0  0  0
  3  2  2  0  0  0  0
  4  1  1  0  0  0  0
  5  4  2  0  0  0  0
  6  2  1  0  0  0  0
  7  8  1  0  0  0  0
  8  9  1  0  0  0  0
  9 22  1  0  0  0  0
 10  7  1  0  0  0  0
 11  4  1  0  0  0  0
 12  6  1  0  0  0  0
 13  6  2  0  0  0  0
 14  7  1  0  0  0  0
 15 17  2  0  0  0  0
 16 10  1  0  0  0  0
 17 13  1  0  0  0  0
 18 12  2  0  0  0  0
 19 14  1  0  0  0  0
 20  9  2  0  0  0  0
 21 10  1  0  0  0  0
 22 11  1  0  0  0  0
 23 19  1  0  0  0  0
 24 18  1  0  0  0  0
 25 17  1  0  0  0  0
 26 24  1  0  0  0  0
 27 25  1  0  0  0  0
  5  3  1  0  0  0  0
 18 15  1  0  0  0  0
 16 19  1  0  0  0  0
 21 23  1  0  0  0  0
M  END
>  <ID> (7967241)
7967241

>  <Supplier> (7967241)
ChemBridge

>  <clogP> (7967241)
2.360000000000000e+000

>  <RB> (7967241)
5

>  <tPSA> (7967241)
8.913000000000000e+001

>  <Hacc> (7967241)
5

>  <Hdon> (7967241)
2

>  <LogSw> (7967241)
-4.048000000000000e+000

>  <Group> (7967241)
2

>  <Core> (7967241)
010

$$$$
7967246
  -ISIS-  03310818282D

 23 25  0  0  0  0  0  0  0  0999 V2000
    5.6542    1.6875    0.0000 C   0  0  0  0  0  0  0  0  0  0  0  0
    6.0292    2.3333    0.0000 C   0  0  0  0  0  0  0  0  0  0  0  0
    4.9042    1.6875    0.0000 N   0  0  3  0  0  0  0  0  0  0  0  0
    3.4042    1.6875    0.0000 N   0  0  3  0  0  0  0  0  0  0  0  0
    2.6542    1.6875    0.0000 C   0  0  0  0  0  0  0  0  0  0  0  0
    2.2792    2.3333    0.0000 C   0  0  0  0  0  0  0  0  0  0  0  0
    6.7792    2.3333    0.0000 C   0  0  0  0  0  0  0  0  0  0  0  0
    6.0292    1.0375    0.0000 O   0  0  0  0  0  0  0  0  0  0  0  0
    4.5292    1.0375    0.0000 C   0  0  0  0  0  0  0  0  0  0  0  0
    4.5292    2.3333    0.0000 C   0  0  0  0  0  0  0  0  0  0  0  0
    3.7792    1.0375    0.0000 C   0  0  0  0  0  0  0  0  0  0  0  0
    3.7792    2.3333    0.0000 C   0  0  0  0  0  0  0  0  0  0  0  0
    1.5292    2.3333    0.0000 C   0  0  0  0  0  0  0  0  0  0  0  0
    7.1542    1.6875    0.0000 S   0  0  0  0  0  0  0  0  0  0  0  0
    5.6542    2.9833    0.0000 C   0  0  0  0  0  0  0  0  0  0  0  0
    1.1542    2.9833    0.0000 Cl  0  0  0  0  0  0  0  0  0  0  0  0
    2.2792    1.0375    0.0000 C   0  0  0  0  0  0  0  0  0  0  0  0
    1.5292    1.0375    0.0000 C   0  0  0  0  0  0  0  0  0  0  0  0
    7.1542    2.9833    0.0000 C   0  0  0  0  0  0  0  0  0  0  0  0
    1.1542    1.6875    0.0000 C   0  0  0  0  0  0  0  0  0  0  0  0
    7.9042    1.6875    0.0000 C   0  0  0  0  0  0  0  0  0  0  0  0
    6.0292    3.6333    0.0000 C   0  0  0  0  0  0  0  0  0  0  0  0
    6.7792    3.6333    0.0000 C   0  0  0  0  0  0  0  0  0  0  0  0
  2  1  1  0  0  0  0
  3  1  1  0  0  0  0
  4 12  1  0  0  0  0
  5  4  1  0  0  0  0
  6  5  2  0  0  0  0
  7  2  1  0  0  0  0
  8  1  2  0  0  0  0
  9  3  1  0  0  0  0
 10  3  1  0  0  0  0
 11  9  1  0  0  0  0
 12 10  1  0  0  0  0
 13  6  1  0  0  0  0
 14  7  1  0  0  0  0
 15  2  2  0  0  0  0
 16 13  1  0  0  0  0
 17  5  1  0  0  0  0
 18 17  2  0  0  0  0
 19  7  2  0  0  0  0
 20 18  1  0  0  0  0
 21 14  1  0  0  0  0
 22 15  1  0  0  0  0
 23 22  2  0  0  0  0
 11  4  1  0  0  0  0
 19 23  1  0  0  0  0
 20 13  2  0  0  0  0
M  END
>  <ID> (7967246)
7967246

>  <Supplier> (7967246)
ChemBridge

>  <clogP> (7967246)
3.490000000000000e+000

>  <RB> (7967246)
2

>  <tPSA> (7967246)
2.355000000000000e+001

>  <Hacc> (7967246)
1

>  <Hdon> (7967246)
0

>  <LogSw> (7967246)
-4.710000000000000e+000

>  <Group> (7967246)
1

>  <Core> (7967246)
158

$$$$
7967247
  -ISIS-  03310818282D

 31 33  0  0  0  0  0  0  0  0999 V2000
    5.3792    3.1208    0.0000 N   0  0  3  0  0  0  0  0  0  0  0  0
    5.8167    3.7333    0.0000 C   0  0  0  0  0  0  0  0  0  0  0  0
    4.6625    3.3583    0.0000 C   0  0  0  0  0  0  0  0  0  0  0  0
    5.3792    4.3250    0.0000 N   0  0  0  0  0  0  0  0  0  0  0  0
    4.6625    4.0917    0.0000 N   0  0  0  0  0  0  0  0  0  0  0  0
    8.8167    2.4250    0.0000 C   0  0  0  0  0  0  0  0  0  0  0  0
    9.1917    1.7750    0.0000 C   0  0  0  0  0  0  0  0  0  0  0  0
    8.0667    2.4250    0.0000 N   0  0  0  0  0  0  0  0  0  0  0  0
    6.5667    3.7333    0.0000 S   0  0  0  0  0  0  0  0  0  0  0  0
    7.6917    3.0833    0.0000 C   0  0  0  0  0  0  0  0  0  0  0  0
    4.0542    2.9083    0.0000 C   0  0  0  0  0  0  0  0  0  0  0  0
    9.9417    1.7750    0.0000 C   0  0  0  0  0  0  0  0  0  0  0  0
    2.7667    2.7708    0.0000 C   0  0  0  0  0  0  0  0  0  0  0  0
    9.1917    3.0833    0.0000 C   0  0  0  0  0  0  0  0  0  0  0  0
    8.0667    3.7333    0.0000 O   0  0  0  0  0  0  0  0  0  0  0  0
    3.3667    3.2125    0.0000 O   0  0  0  0  0  0  0  0  0  0  0  0
    6.9417    3.0833    0.0000 C   0  0  0  0  0  0  0  0  0  0  0  0
    1.4750    2.6458    0.0000 C   0  0  0  0  0  0  0  0  0  0  0  0
    2.2375    1.5875    0.0000 C   0  0  0  0  0  0  0  0  0  0  0  0
    8.8167    1.1250    0.0000 C   0  0  3  0  0  0  0  0  0  0  0  0
    5.6042    2.4083    0.0000 C   0  0  0  0  0  0  0  0  0  0  0  0
   10.3167    2.4250    0.0000 C   0  0  0  0  0  0  0  0  0  0  0  0
    2.8417    2.0250    0.0000 C   0  0  0  0  0  0  0  0  0  0  0  0
    2.0792    3.0833    0.0000 C   0  0  0  0  0  0  0  0  0  0  0  0
    1.5542    1.8958    0.0000 C   0  0  0  0  0  0  0  0  0  0  0  0
    9.9417    3.0833    0.0000 C   0  0  0  0  0  0  0  0  0  0  0  0
   11.0667    2.4250    0.0000 Br  0  0  0  0  0  0  0  0  0  0  0  0
    2.3167    0.8458    0.0000 C   0  0  0  0  0  0  0  0  0  0  0  0
    0.7875    2.9458    0.0000 C   0  0  0  0  0  0  0  0  0  0  0  0
    9.1917    0.4750    0.0000 C   0  0  0  0  0  0  0  0  0  0  0  0
    8.0667    1.1250    0.0000 C   0  0  0  0  0  0  0  0  0  0  0  0
  2  1  1  0  0  0  0
  3  1  1  0  0  0  0
  4  2  2  0  0  0  0
  5  3  2  0  0  0  0
  6  8  1  0  0  0  0
  7  6  1  0  0  0  0
  8 10  1  0  0  0  0
  9  2  1  0  0  0  0
 10 17  1  0  0  0  0
 11  3  1  0  0  0  0
 12  7  2  0  0  0  0
 13 16  1  0  0  0  0
 14  6  2  0  0  0  0
 15 10  2  0  0  0  0
 16 11  1  0  0  0  0
 17  9  1  0  0  0  0
 18 24  2  0  0  0  0
 19 23  1  0  0  0  0
 20  7  1  0  0  0  0
 21  1  1  0  0  0  0
 22 26  2  0  0  0  0
 23 13  2  0  0  0  0
 24 13  1  0  0  0  0
 25 18  1  0  0  0  0
 26 14  1  0  0  0  0
 27 22  1  0  0  0  0
 28 19  1  0  0  0  0
 29 18  1  0  0  0  0
 30 20  1  0  0  0  0
 31 20  1  0  0  0  0
  5  4  1  0  0  0  0
 25 19  2  0  0  0  0
 22 12  1  0  0  0  0
M  END
>  <ID> (7967247)
7967247

>  <Supplier> (7967247)
ChemBridge

>  <clogP> (7967247)
4.470000000000002e+000

>  <RB> (7967247)
7

>  <tPSA> (7967247)
6.904000000000001e+001

>  <Hacc> (7967247)
4

>  <Hdon> (7967247)
1

>  <LogSw> (7967247)
-6.686999999999999e+000

>  <Group> (7967247)
1

>  <Core> (7967247)
009

$$$$
7967244
  -ISIS-  03310818282D

 23 25  0  0  0  0  0  0  0  0999 V2000
    1.6625    1.6083    0.0000 N   0  3  0  0  0  0  0  0  0  0  0  0
    6.8542    1.6083    0.0000 C   0  0  0  0  0  0  0  0  0  0  0  0
    7.5042    1.9833    0.0000 N   0  0  3  0  0  0  0  0  0  0  0  0
    2.3042    1.9833    0.0000 C   0  0  0  0  0  0  0  0  0  0  0  0
    1.0125    1.9833    0.0000 O   0  5  0  0  0  0  0  0  0  0  0  0
    6.2042    1.9833    0.0000 C   0  0  0  0  0  0  0  0  0  0  0  0
    1.6625    0.8583    0.0000 O   0  0  0  0  0  0  0  0  0  0  0  0
    6.8542    0.8583    0.0000 O   0  0  0  0  0  0  0  0  0  0  0  0
    4.2542    3.1083    0.0000 O   0  0  0  0  0  0  0  0  0  0  0  0
    2.9542    1.6083    0.0000 C   0  0  0  0  0  0  0  0  0  0  0  0
    2.3042    2.7333    0.0000 C   0  0  0  0  0  0  0  0  0  0  0  0
    5.5542    1.6083    0.0000 C   0  0  0  0  0  0  0  0  0  0  0  0
    6.2042    2.7333    0.0000 C   0  0  0  0  0  0  0  0  0  0  0  0
    3.6042    2.7333    0.0000 C   0  0  0  0  0  0  0  0  0  0  0  0
    4.9042    2.7333    0.0000 C   0  0  0  0  0  0  0  0  0  0  0  0
    2.9542    3.1083    0.0000 C   0  0  0  0  0  0  0  0  0  0  0  0
    5.5542    3.1083    0.0000 C   0  0  0  0  0  0  0  0  0  0  0  0
    4.9042    1.9833    0.0000 C   0  0  0  0  0  0  0  0  0  0  0  0
    3.6042    1.9833    0.0000 C   0  0  0  0  0  0  0  0  0  0  0  0
    8.1917    1.6833    0.0000 C   0  0  0  0  0  0  0  0  0  0  0  0
    7.5792    2.7333    0.0000 C   0  0  0  0  0  0  0  0  0  0  0  0
    8.3167    2.8958    0.0000 C   0  0  0  0  0  0  0  0  0  0  0  0
    8.6917    2.2375    0.0000 C   0  0  0  0  0  0  0  0  0  0  0  0
  2  6  1  0  0  0  0
  3  2  1  0  0  0  0
  4  1  1  0  0  0  0
  5  1  1  0  0  0  0
  6 12  1  0  0  0  0
  7  1  2  0  0  0  0
  8  2  2  0  0  0  0
  9 14  1  0  0  0  0
 10  4  2  0  0  0  0
 11  4  1  0  0  0  0
 12 18  2  0  0  0  0
 13 17  1  0  0  0  0
 14 16  1  0  0  0  0
 15  9  1  0  0  0  0
 16 11  2  0  0  0  0
 17 15  2  0  0  0  0
 18 15  1  0  0  0  0
 19 10  1  0  0  0  0
 20  3  1  0  0  0  0
 21  3  1  0  0  0  0
 22 21  1  0  0  0  0
 23 20  1  0  0  0  0
 19 14  2  0  0  0  0
 13  6  2  0  0  0  0
 22 23  1  0  0  0  0
M  CHG  2   1   1   5  -1
M  END
>  <ID> (7967244)
7967244

>  <Supplier> (7967244)
ChemBridge

>  <clogP> (7967244)
3.080000000000000e+000

>  <RB> (7967244)
3

>  <tPSA> (7967244)
7.268000000000001e+001

>  <Hacc> (7967244)
4

>  <Hdon> (7967244)
0

>  <LogSw> (7967244)
-4.498000000000000e+000

>  <Group> (7967244)
3

$$$$
5482579
  -ISIS-  03310818222D

 20 21  0  0  0  0  0  0  0  0999 V2000
   -0.8125   -0.3167    0.0000 C   0  0  0  0  0  0  0  0  0  0  0  0
   -1.4958    0.1000    0.0000 C   0  0  0  0  0  0  0  0  0  0  0  0
   -0.8125   -1.1167    0.0000 N   0  0  0  0  0  0  0  0  0  0  0  0
   -0.1125    0.1000    0.0000 N   0  0  0  0  0  0  0  0  0  0  0  0
   -2.1958   -0.3167    0.0000 C   0  0  0  0  0  0  0  0  0  0  0  0
   -2.2125   -1.1167    0.0000 O   0  0  0  0  0  0  0  0  0  0  0  0
   -0.1333   -1.5167    0.0000 C   0  0  0  0  0  0  0  0  0  0  0  0
   -0.0958    0.9000    0.0000 C   0  0  0  0  0  0  0  0  0  0  0  0
   -3.6125   -0.2875    0.0000 Cl  0  0  0  0  0  0  0  0  0  0  0  0
   -2.8958    0.1000    0.0000 C   0  0  0  0  0  0  0  0  0  0  0  0
   -0.1333   -2.3167    0.0000 C   0  0  0  0  0  0  0  0  0  0  0  0
    0.5542   -1.1042    0.0000 C   0  0  0  0  0  0  0  0  0  0  0  0
   -0.8000    1.3000    0.0000 C   0  0  0  0  0  0  0  0  0  0  0  0
    0.6042    1.3000    0.0000 C   0  0  0  0  0  0  0  0  0  0  0  0
    0.5667   -2.7167    0.0000 C   0  0  0  0  0  0  0  0  0  0  0  0
   -0.8000    2.1208    0.0000 C   0  0  0  0  0  0  0  0  0  0  0  0
    0.6042    2.1208    0.0000 C   0  0  0  0  0  0  0  0  0  0  0  0
    1.2667   -1.5042    0.0000 C   0  0  0  0  0  0  0  0  0  0  0  0
   -0.1000    2.5208    0.0000 C   0  0  0  0  0  0  0  0  0  0  0  0
    1.2667   -2.3167    0.0000 C   0  0  0  0  0  0  0  0  0  0  0  0
  2  1  2  0  0  0  0
  3  1  1  0  0  0  0
  4  1  1  0  0  0  0
  5  2  1  0  0  0  0
  6  5  2  0  0  0  0
  7  3  1  0  0  0  0
  8  4  1  0  0  0  0
  9 10  1  0  0  0  0
 10  5  1  0  0  0  0
 11  7  2  0  0  0  0
 12  7  1  0  0  0  0
 13  8  1  0  0  0  0
 14  8  2  0  0  0  0
 15 11  1  0  0  0  0
 16 13  2  0  0  0  0
 17 14  1  0  0  0  0
 18 12  2  0  0  0  0
 19 17  2  0  0  0  0
 20 18  1  0  0  0  0
 16 19  1  0  0  0  0
 15 20  2  0  0  0  0
M  END
>  <ID> (5482579)
5482579

>  <Supplier> (5482579)
ChemBridge

>  <clogP> (5482579)
2.840000000000000e+000

>  <RB> (5482579)
5

>  <tPSA> (5482579)
4.113000000000000e+001

>  <Hacc> (5482579)
1

>  <Hdon> (5482579)
2

>  <LogSw> (5482579)
-3.717000000000000e+000

>  <Group> (5482579)
1

$$$$
7967248
  -ISIS-  03310818282D

 20 21  0  0  0  0  0  0  0  0999 V2000
    8.9500    1.5833    0.0000 C   0  0  0  0  0  0  0  0  0  0  0  0
    7.6500    1.5833    0.0000 O   0  0  0  0  0  0  0  0  0  0  0  0
    9.6000    1.2083    0.0000 N   0  0  0  0  0  0  0  0  0  0  0  0
    7.0000    1.2083    0.0000 C   0  0  0  0  0  0  0  0  0  0  0  0
    8.3000    1.2083    0.0000 C   0  0  3  0  0  0  0  0  0  0  0  0
    8.9500    2.3333    0.0000 O   0  0  0  0  0  0  0  0  0  0  0  0
   12.1917    0.4583    0.0000 N   0  0  0  0  0  0  0  0  0  0  0  0
    6.3500    1.5833    0.0000 C   0  0  0  0  0  0  0  0  0  0  0  0
   10.2500    1.5833    0.0000 C   0  0  0  0  0  0  0  0  0  0  0  0
   10.8917    1.2083    0.0000 C   0  0  0  0  0  0  0  0  0  0  0  0
    7.0000    0.4583    0.0000 C   0  0  0  0  0  0  0  0  0  0  0  0
   11.5417    0.0833    0.0000 C   0  0  0  0  0  0  0  0  0  0  0  0
   12.1917    1.2083    0.0000 C   0  0  0  0  0  0  0  0  0  0  0  0
    8.3000    0.4583    0.0000 C   0  0  0  0  0  0  0  0  0  0  0  0
    6.3500    2.3333    0.0000 C   0  0  0  0  0  0  0  0  0  0  0  0
    5.7042    1.2083    0.0000 C   0  0  0  0  0  0  0  0  0  0  0  0
   11.5417    1.5833    0.0000 C   0  0  0  0  0  0  0  0  0  0  0  0
   10.8917    0.4583    0.0000 C   0  0  0  0  0  0  0  0  0  0  0  0
    6.3500    0.0833    0.0000 C   0  0  0  0  0  0  0  0  0  0  0  0
    5.7042    0.4583    0.0000 C   0  0  0  0  0  0  0  0  0  0  0  0
  2  5  1  0  0  0  0
  3  1  1  0  0  0  0
  4  2  1  0  0  0  0
  5  1  1  0  0  0  0
  6  1  2  0  0  0  0
  7 12  1  0  0  0  0
  8  4  2  0  0  0  0
  9  3  1  0  0  0  0
 10  9  1  0  0  0  0
 11  4  1  0  0  0  0
 12 18  2  0  0  0  0
 13 17  1  0  0  0  0
 14  5  1  0  0  0  0
 15  8  1  0  0  0  0
 16  8  1  0  0  0  0
 17 10  2  0  0  0  0
 18 10  1  0  0  0  0
 19 11  2  0  0  0  0
 20 19  1  0  0  0  0
 13  7  2  0  0  0  0
 20 16  2  0  0  0  0
M  END
>  <ID> (7967248)
7967248

>  <Supplier> (7967248)
ChemBridge

>  <clogP> (7967248)
2.010000000000000e+000

>  <RB> (7967248)
5

>  <tPSA> (7967248)
5.121999999999999e+001

>  <Hacc> (7967248)
3

>  <Hdon> (7967248)
1

>  <LogSw> (7967248)
-1.589000000000000e+000

>  <Group> (7967248)
2

>  <Core> (7967248)
315

$$$$
7967249
  -ISIS-  03310818282D

 33 37  0  0  0  0  0  0  0  0999 V2000
    5.4917    1.0125    0.0000 N   0  0  3  0  0  0  0  0  0  0  0  0
    6.5417    1.6208    0.0000 C   0  0  3  0  0  0  0  0  0  0  0  0
    6.2375    0.9375    0.0000 C   0  0  0  0  0  0  0  0  0  0  0  0
    5.9792    2.1250    0.0000 C   0  0  0  0  0  0  0  0  0  0  0  0
    5.3375    1.7500    0.0000 C   0  0  0  0  0  0  0  0  0  0  0  0
    7.1917    1.2458    0.0000 C   0  0  0  0  0  0  0  0  0  0  0  0
    7.8417    1.6208    0.0000 C   0  0  0  0  0  0  0  0  0  0  0  0
    4.9917    0.4583    0.0000 C   0  0  0  0  0  0  0  0  0  0  0  0
    8.4917    1.2458    0.0000 C   0  0  0  0  0  0  0  0  0  0  0  0
    9.1417    0.1208    0.0000 C   0  0  0  0  0  0  0  0  0  0  0  0
    8.4917    0.4958    0.0000 C   0  0  0  0  0  0  0  0  0  0  0  0
    3.2917    1.4833    0.0000 C   0  0  0  0  0  0  0  0  0  0  0  0
    6.6125    0.2875    0.0000 O   0  0  0  0  0  0  0  0  0  0  0  0
    9.7917    0.4958    0.0000 C   0  0  0  0  0  0  0  0  0  0  0  0
    2.7875    0.9250    0.0000 C   0  0  0  0  0  0  0  0  0  0  0  0
    9.1417   -0.6292    0.0000 O   0  0  0  0  0  0  0  0  0  0  0  0
    4.2542    0.6125    0.0000 C   0  0  0  0  0  0  0  0  0  0  0  0
    4.0250    1.3250    0.0000 C   0  0  0  0  0  0  0  0  0  0  0  0
   10.4417    0.1208    0.0000 O   0  0  0  0  0  0  0  0  0  0  0  0
    6.9792    2.2333    0.0000 O   0  0  0  0  0  0  0  0  0  0  0  0
    7.8417    2.3708    0.0000 O   0  0  0  0  0  0  0  0  0  0  0  0
    9.1417    1.6208    0.0000 C   0  0  0  0  0  0  0  0  0  0  0  0
    9.7917    1.2458    0.0000 C   0  0  0  0  0  0  0  0  0  0  0  0
    3.0167    0.2125    0.0000 C   0  0  0  0  0  0  0  0  0  0  0  0
    3.0542    2.1958    0.0000 Cl  0  0  0  0  0  0  0  0  0  0  0  0
    3.7542    0.0583    0.0000 C   0  0  0  0  0  0  0  0  0  0  0  0
    2.0542    1.0833    0.0000 Cl  0  0  0  0  0  0  0  0  0  0  0  0
    5.9792    2.8750    0.0000 C   0  0  0  0  0  0  0  0  0  0  0  0
    4.6875    2.1250    0.0000 C   0  0  0  0  0  0  0  0  0  0  0  0
    9.7917   -1.0042    0.0000 C   0  0  0  0  0  0  0  0  0  0  0  0
   10.4417   -0.6292    0.0000 C   0  0  0  0  0  0  0  0  0  0  0  0
    5.3375    3.2500    0.0000 C   0  0  0  0  0  0  0  0  0  0  0  0
    4.6875    2.8750    0.0000 C   0  0  0  0  0  0  0  0  0  0  0  0
  2  3  1  0  0  0  0
  3  1  1  0  0  0  0
  4  5  2  0  0  0  0
  5  1  1  0  0  0  0
  6  2  1  0  0  0  0
  7  6  1  0  0  0  0
  8  1  1  0  0  0  0
  9  7  1  0  0  0  0
 10 11  2  0  0  0  0
 11  9  1  0  0  0  0
 12 18  1  0  0  0  0
 13  3  2  0  0  0  0
 14 23  2  0  0  0  0
 15 24  1  0  0  0  0
 16 10  1  0  0  0  0
 17  8  1  0  0  0  0
 18 17  2  0  0  0  0
 19 14  1  0  0  0  0
 20  2  1  0  0  0  0
 21  7  2  0  0  0  0
 22  9  2  0  0  0  0
 23 22  1  0  0  0  0
 24 26  2  0  0  0  0
 25 12  1  0  0  0  0
 26 17  1  0  0  0  0
 27 15  1  0  0  0  0
 28  4  1  0  0  0  0
 29  5  1  0  0  0  0
 30 16  1  0  0  0  0
 31 19  1  0  0  0  0
 32 33  1  0  0  0  0
 33 29  2  0  0  0  0
  4  2  1  0  0  0  0
 32 28  2  0  0  0  0
 12 15  2  0  0  0  0
 14 10  1  0  0  0  0
 31 30  1  0  0  0  0
M  END
>  <ID> (7967249)
7967249

>  <Supplier> (7967249)
ChemBridge

>  <clogP> (7967249)
5.330000000000000e+000

>  <RB> (7967249)
5

>  <tPSA> (7967249)
7.606999999999998e+001

>  <Hacc> (7967249)
5

>  <Hdon> (7967249)
1

>  <LogSw> (7967249)
-7.282000000000000e+000

>  <Group> (7967249)
1

>  <Core> (7967249)
101

$$$$
5193905
  -ISIS-  03310818212D

 28 30  0  0  0  0  0  0  0  0999 V2000
   -1.4000    0.0000    0.0000 N   0  0  0  0  0  0  0  0  0  0  0  0
    1.3792    0.0000    0.0000 N   0  0  0  0  0  0  0  0  0  0  0  0
    3.4875   -1.2542    0.0000 C   0  0  0  0  0  0  0  0  0  0  0  0
   -3.5125    1.2625    0.0000 C   0  0  0  0  0  0  0  0  0  0  0  0
    3.8667   -0.6542    0.0000 C   0  0  0  0  0  0  0  0  0  0  0  0
   -3.8958    0.6625    0.0000 C   0  0  0  0  0  0  0  0  0  0  0  0
    1.7375   -0.6167    0.0000 C   0  0  0  0  0  0  0  0  0  0  0  0
   -1.7625    0.6208    0.0000 C   0  0  0  0  0  0  0  0  0  0  0  0
   -2.8125    1.2333    0.0000 C   0  0  0  0  0  0  0  0  0  0  0  0
    2.7875   -1.2292    0.0000 C   0  0  0  0  0  0  0  0  0  0  0  0
   -3.5458    0.0333    0.0000 C   0  0  0  0  0  0  0  0  0  0  0  0
    3.5167   -0.0292    0.0000 C   0  0  0  0  0  0  0  0  0  0  0  0
    0.6875    0.0000    0.0000 C   0  0  0  0  0  0  0  0  0  0  0  0
   -0.7125    0.0000    0.0000 C   0  0  0  0  0  0  0  0  0  0  0  0
   -2.4708    0.6208    0.0000 C   0  0  0  0  0  0  0  0  0  0  0  0
    2.4417   -0.6167    0.0000 C   0  0  0  0  0  0  0  0  0  0  0  0
   -3.8708    1.8625    0.0000 O   0  0  0  0  0  0  0  0  0  0  0  0
    3.8500   -1.8542    0.0000 O   0  0  0  0  0  0  0  0  0  0  0  0
   -2.8458    0.0333    0.0000 C   0  0  0  0  0  0  0  0  0  0  0  0
    2.8167   -0.0292    0.0000 C   0  0  0  0  0  0  0  0  0  0  0  0
    0.3292   -0.6000    0.0000 C   0  0  0  0  0  0  0  0  0  0  0  0
   -0.3625   -0.6000    0.0000 C   0  0  0  0  0  0  0  0  0  0  0  0
    0.3375    0.6000    0.0000 C   0  0  0  0  0  0  0  0  0  0  0  0
   -0.3500    0.6000    0.0000 C   0  0  0  0  0  0  0  0  0  0  0  0
    4.5500   -0.6792    0.0000 O   0  0  0  0  0  0  0  0  0  0  0  0
   -4.5708    0.6833    0.0000 O   0  0  0  0  0  0  0  0  0  0  0  0
    4.8667   -1.3042    0.0000 C   0  0  0  0  0  0  0  0  0  0  0  0
   -4.8958    1.3125    0.0000 C   0  0  0  0  0  0  0  0  0  0  0  0
  2 13  1  0  0  0  0
  3 10  2  0  0  0  0
  4  9  2  0  0  0  0
  5 12  2  0  0  0  0
  6 11  2  0  0  0  0
  7  2  2  0  0  0  0
  8  1  2  0  0  0  0
  9 15  1  0  0  0  0
 10 16  1  0  0  0  0
 11 19  1  0  0  0  0
 12 20  1  0  0  0  0
 13 23  1  0  0  0  0
 14  1  1  0  0  0  0
 15  8  1  0  0  0  0
 16  7  1  0  0  0  0
 17  4  1  0  0  0  0
 18  3  1  0  0  0  0
 19 15  2  0  0  0  0
 20 16  2  0  0  0  0
 21 22  1  0  0  0  0
 22 14  2  0  0  0  0
 23 24  2  0  0  0  0
 24 14  1  0  0  0  0
 25  5  1  0  0  0  0
 26  6  1  0  0  0  0
 27 25  1  0  0  0  0
 28 26  1  0  0  0  0
 13 21  2  0  0  0  0
  6  4  1  0  0  0  0
  5  3  1  0  0  0  0
M  END
>  <ID> (5193905)
5193905

>  <Supplier> (5193905)
ChemBridge

>  <clogP> (5193905)
1.920000000000000e+000

>  <RB> (5193905)
4

>  <tPSA> (5193905)
8.364000000000003e+001

>  <Hacc> (5193905)
6

>  <Hdon> (5193905)
2

>  <LogSw> (5193905)
-3.584000000000000e+000

>  <Group> (5193905)
1

>  <Core> (5193905)
464

$$$$
9059861
  -ISIS-  03310818282D

 19 20  0  0  0  0  0  0  0  0999 V2000
    4.3292    1.8750    0.0000 C   0  0  0  0  0  0  0  0  0  0  0  0
    4.9792    1.5000    0.0000 N   0  0  0  0  0  0  0  0  0  0  0  0
    5.6250    1.8750    0.0000 C   0  0  0  0  0  0  0  0  0  0  0  0
    3.6792    1.5000    0.0000 N   0  0  0  0  0  0  0  0  0  0  0  0
    4.3292    2.6250    0.0000 O   0  0  0  0  0  0  0  0  0  0  0  0
    6.2750    1.5000    0.0000 C   0  0  0  0  0  0  0  0  0  0  0  0
    5.6250    2.6250    0.0000 C   0  0  0  0  0  0  0  0  0  0  0  0
    6.9250    1.8750    0.0000 C   0  0  0  0  0  0  0  0  0  0  0  0
    3.0292    1.8750    0.0000 C   0  0  0  0  0  0  0  0  0  0  0  0
    6.2750    3.0000    0.0000 C   0  0  0  0  0  0  0  0  0  0  0  0
    1.7292    2.6250    0.0000 C   0  0  0  0  0  0  0  0  0  0  0  0
    6.9250    2.6250    0.0000 C   0  0  0  0  0  0  0  0  0  0  0  0
    1.0792    3.0000    0.0000 F   0  0  0  0  0  0  0  0  0  0  0  0
    2.3792    1.5000    0.0000 C   0  0  0  0  0  0  0  0  0  0  0  0
    3.0292    2.6250    0.0000 C   0  0  0  0  0  0  0  0  0  0  0  0
    2.3792    3.0000    0.0000 C   0  0  0  0  0  0  0  0  0  0  0  0
    1.7292    1.8750    0.0000 C   0  0  0  0  0  0  0  0  0  0  0  0
    6.2750    0.7500    0.0000 C   0  0  0  0  0  0  0  0  0  0  0  0
    6.2750    3.7500    0.0000 C   0  0  0  0  0  0  0  0  0  0  0  0
  2  1  1  0  0  0  0
  3  2  1  0  0  0  0
  4  1  1  0  0  0  0
  5  1  2  0  0  0  0
  6  3  2  0  0  0  0
  7  3  1  0  0  0  0
  8  6  1  0  0  0  0
  9  4  1  0  0  0  0
 10  7  2  0  0  0  0
 11 16  1  0  0  0  0
 12 10  1  0  0  0  0
 13 11  1  0  0  0  0
 14  9  2  0  0  0  0
 15  9  1  0  0  0  0
 16 15  2  0  0  0  0
 17 14  1  0  0  0  0
 18  6  1  0  0  0  0
 19 10  1  0  0  0  0
 17 11  2  0  0  0  0
  8 12  2  0  0  0  0
M  END
>  <ID> (9059861)
9059861

>  <Supplier> (9059861)
ChemBridge

>  <clogP> (9059861)
3.893000000000000e+000

>  <RB> (9059861)
2

>  <tPSA> (9059861)
4.113000000000000e+001

>  <Hacc> (9059861)
1

>  <Hdon> (9059861)
2

>  <LogSw> (9059861)
-4.725000000000000e+000

>  <Group> (9059861)
2

>  <Core> (9059861)
514

$$$$
7436343
  -ISIS-  03310818262D

 24 26  0  0  0  0  0  0  0  0999 V2000
    5.1375   -1.3167    0.0000 C   0  0  0  0  0  0  0  0  0  0  0  0
    4.7167   -2.5875    0.0000 N   0  0  3  0  0  0  0  0  0  0  0  0
    5.3875   -2.1000    0.0000 C   0  0  0  0  0  0  0  0  0  0  0  0
    4.0500   -2.1042    0.0000 N   0  0  0  0  0  0  0  0  0  0  0  0
    4.3125   -1.3167    0.0000 C   0  0  0  0  0  0  0  0  0  0  0  0
    5.6167   -0.6500    0.0000 C   0  0  0  0  0  0  0  0  0  0  0  0
    8.0792   -0.9042    0.0000 C   0  0  0  0  0  0  0  0  0  0  0  0
    7.5917   -1.5750    0.0000 C   0  0  0  0  0  0  0  0  0  0  0  0
    7.7375   -0.1500    0.0000 C   0  0  0  0  0  0  0  0  0  0  0  0
    6.4375   -0.7375    0.0000 C   0  0  0  0  0  0  0  0  0  0  0  0
    4.7167   -3.4125    0.0000 C   0  0  0  0  0  0  0  0  0  0  0  0
    6.1750   -2.3500    0.0000 O   0  0  0  0  0  0  0  0  0  0  0  0
    6.7750   -1.4917    0.0000 C   0  0  0  0  0  0  0  0  0  0  0  0
    6.9167   -0.0667    0.0000 C   0  0  0  0  0  0  0  0  0  0  0  0
    5.4375   -3.8250    0.0000 C   0  0  0  0  0  0  0  0  0  0  0  0
    4.0042   -3.8250    0.0000 C   0  0  0  0  0  0  0  0  0  0  0  0
    8.2250    0.5208    0.0000 Cl  0  0  0  0  0  0  0  0  0  0  0  0
    7.9292   -2.3292    0.0000 Br  0  0  0  0  0  0  0  0  0  0  0  0
    8.8917   -0.9917    0.0000 O   0  0  0  0  0  0  0  0  0  0  0  0
    4.7167   -5.0625    0.0000 C   0  0  0  0  0  0  0  0  0  0  0  0
    5.4375   -4.6500    0.0000 C   0  0  0  0  0  0  0  0  0  0  0  0
    4.0042   -4.6500    0.0000 C   0  0  0  0  0  0  0  0  0  0  0  0
    4.7125   -5.8875    0.0000 Cl  0  0  0  0  0  0  0  0  0  0  0  0
    3.8250   -0.6542    0.0000 C   0  0  0  0  0  0  0  0  0  0  0  0
  2  3  1  0  0  0  0
  3  1  1  0  0  0  0
  4  5  2  0  0  0  0
  5  1  1  0  0  0  0
  6  1  2  0  0  0  0
  7  9  1  0  0  0  0
  8 13  1  0  0  0  0
  9 14  2  0  0  0  0
 10  6  1  0  0  0  0
 11  2  1  0  0  0  0
 12  3  2  0  0  0  0
 13 10  2  0  0  0  0
 14 10  1  0  0  0  0
 15 11  2  0  0  0  0
 16 11  1  0  0  0  0
 17  9  1  0  0  0  0
 18  8  1  0  0  0  0
 19  7  1  0  0  0  0
 20 22  1  0  0  0  0
 21 15  1  0  0  0  0
 22 16  2  0  0  0  0
 23 20  1  0  0  0  0
 24  5  1  0  0  0  0
  4  2  1  0  0  0  0
  8  7  2  0  0  0  0
 20 21  2  0  0  0  0
M  END
>  <ID> (7436343)
7436343

>  <Supplier> (7436343)
ChemBridge

>  <clogP> (7436343)
4.676000000000000e+000

>  <RB> (7436343)
2

>  <tPSA> (7436343)
5.290000000000000e+001

>  <Hacc> (7436343)
3

>  <Hdon> (7436343)
1

>  <LogSw> (7436343)
-7.106999999999998e+000

>  <Group> (7436343)
1

>  <Core> (7436343)
046

$$$$
9049825
  -ISIS-  03310818282D

 16 17  0  0  0  0  0  0  0  0999 V2000
    3.3250    1.6458    0.0000 S   0  0  3  0  0  0  0  0  0  0  0  0
    4.0417    1.8750    0.0000 C   0  0  0  0  0  0  0  0  0  0  0  0
    4.6417    1.4375    0.0000 C   0  0  0  0  0  0  0  0  0  0  0  0
    5.2542    1.8750    0.0000 N   0  0  0  0  0  0  0  0  0  0  0  0
    4.2667    2.5958    0.0000 C   0  0  0  0  0  0  0  0  0  0  0  0
    5.0167    2.5958    0.0000 N   0  0  3  0  0  0  0  0  0  0  0  0
    2.9167    2.2750    0.0000 N   0  0  0  0  0  0  0  0  0  0  0  0
    2.6667    1.2958    0.0000 O   0  0  0  0  0  0  0  0  0  0  0  0
    3.6167    0.9583    0.0000 O   0  0  0  0  0  0  0  0  0  0  0  0
    2.1667    2.2333    0.0000 C   0  0  3  0  0  0  0  0  0  0  0  0
    4.6417    0.6875    0.0000 C   0  0  0  0  0  0  0  0  0  0  0  0
    5.4625    3.1958    0.0000 C   0  0  0  0  0  0  0  0  0  0  0  0
    1.6917    2.8208    0.0000 C   0  0  0  0  0  0  0  0  0  0  0  0
    1.7625    1.6083    0.0000 C   0  0  0  0  0  0  0  0  0  0  0  0
    1.0375    1.8000    0.0000 C   0  0  0  0  0  0  0  0  0  0  0  0
    0.9917    2.5500    0.0000 C   0  0  0  0  0  0  0  0  0  0  0  0
  2  1  1  0  0  0  0
  3  2  1  0  0  0  0
  4  3  2  0  0  0  0
  5  2  2  0  0  0  0
  6  5  1  0  0  0  0
  7  1  1  0  0  0  0
  8  1  2  0  0  0  0
  9  1  2  0  0  0  0
 10  7  1  0  0  0  0
 11  3  1  0  0  0  0
 12  6  1  0  0  0  0
 13 10  1  0  0  0  0
 14 10  1  0  0  0  0
 15 14  1  0  0  0  0
 16 13  1  0  0  0  0
  6  4  1  0  0  0  0
 16 15  1  0  0  0  0
M  END
>  <ID> (9049825)
9049825

>  <Supplier> (9049825)
ChemBridge

>  <clogP> (9049825)
1.525000000000000e+000

>  <RB> (9049825)
2

>  <tPSA> (9049825)
6.399000000000000e+001

>  <Hacc> (9049825)
4

>  <Hdon> (9049825)
1

>  <LogSw> (9049825)
-2.491000000000000e+000

>  <Group> (9049825)
2

>  <Core> (9049825)
297

$$$$
7436344
  -ISIS-  03310818262D

 28 31  0  0  0  0  0  0  0  0999 V2000
    3.7542   -5.0292    0.0000 C   0  0  0  0  0  0  0  0  0  0  0  0
    3.5667   -6.2292    0.0000 N   0  0  3  0  0  0  0  0  0  0  0  0
    4.1000   -5.6917    0.0000 C   0  0  0  0  0  0  0  0  0  0  0  0
    2.9042   -5.8875    0.0000 N   0  0  0  0  0  0  0  0  0  0  0  0
    3.0167   -5.1542    0.0000 C   0  0  0  0  0  0  0  0  0  0  0  0
    6.0125   -4.6167    0.0000 C   0  0  0  0  0  0  0  0  0  0  0  0
    6.6417   -5.0167    0.0000 C   0  0  0  0  0  0  0  0  0  0  0  0
    4.0875   -4.3625    0.0000 C   0  0  0  0  0  0  0  0  0  0  0  0
    5.3167   -4.8917    0.0000 O   0  0  0  0  0  0  0  0  0  0  0  0
    4.8292   -4.3167    0.0000 C   0  0  0  0  0  0  0  0  0  0  0  0
    3.6875   -6.9667    0.0000 C   0  0  0  0  0  0  0  0  0  0  0  0
    5.9542   -3.8667    0.0000 C   0  0  0  0  0  0  0  0  0  0  0  0
    5.2375   -3.6792    0.0000 C   0  0  0  0  0  0  0  0  0  0  0  0
    4.8375   -5.8167    0.0000 O   0  0  0  0  0  0  0  0  0  0  0  0
    7.3125   -4.6625    0.0000 C   0  0  0  0  0  0  0  0  0  0  0  0
    2.4917   -4.6292    0.0000 O   0  0  0  0  0  0  0  0  0  0  0  0
    6.6167   -5.7667    0.0000 C   0  0  0  0  0  0  0  0  0  0  0  0
    3.1042   -7.4417    0.0000 C   0  0  0  0  0  0  0  0  0  0  0  0
    7.9417   -5.0625    0.0000 C   0  0  0  0  0  0  0  0  0  0  0  0
    7.2542   -6.1625    0.0000 C   0  0  0  0  0  0  0  0  0  0  0  0
    7.3375   -3.9125    0.0000 Cl  0  0  0  0  0  0  0  0  0  0  0  0
    3.2167   -8.1792    0.0000 C   0  0  0  0  0  0  0  0  0  0  0  0
    7.9167   -5.8125    0.0000 C   0  0  0  0  0  0  0  0  0  0  0  0
    7.2292   -6.9125    0.0000 Cl  0  0  0  0  0  0  0  0  0  0  0  0
    4.3875   -7.2417    0.0000 C   0  0  0  0  0  0  0  0  0  0  0  0
    4.5042   -7.9792    0.0000 C   0  0  0  0  0  0  0  0  0  0  0  0
    3.9167   -8.4542    0.0000 C   0  0  0  0  0  0  0  0  0  0  0  0
    2.6375   -8.6542    0.0000 C   0  0  0  0  0  0  0  0  0  0  0  0
  2  3  1  0  0  0  0
  3  1  1  0  0  0  0
  4  5  1  0  0  0  0
  5  1  1  0  0  0  0
  6  9  1  0  0  0  0
  7  6  1  0  0  0  0
  8  1  2  0  0  0  0
  9 10  1  0  0  0  0
 10  8  1  0  0  0  0
 11  2  1  0  0  0  0
 12 13  1  0  0  0  0
 13 10  2  0  0  0  0
 14  3  2  0  0  0  0
 15  7  2  0  0  0  0
 16  5  2  0  0  0  0
 17  7  1  0  0  0  0
 18 11  1  0  0  0  0
 19 15  1  0  0  0  0
 20 17  2  0  0  0  0
 21 15  1  0  0  0  0
 22 18  2  0  0  0  0
 23 20  1  0  0  0  0
 24 20  1  0  0  0  0
 25 11  2  0  0  0  0
 26 25  1  0  0  0  0
 27 26  2  0  0  0  0
 28 22  1  0  0  0  0
  4  2  1  0  0  0  0
  6 12  2  0  0  0  0
 22 27  1  0  0  0  0
 23 19  2  0  0  0  0
M  END
>  <ID> (7436344)
7436344

>  <Supplier> (7436344)
ChemBridge

>  <clogP> (7436344)
5.052000000000000e+000

>  <RB> (7436344)
3

>  <tPSA> (7436344)
6.255000000000000e+001

>  <Hacc> (7436344)
3

>  <Hdon> (7436344)
1

>  <LogSw> (7436344)
-6.499000000000001e+000

>  <Group> (7436344)
1

>  <Core> (7436344)
048

$$$$
5107098
  -ISIS-  03310818212D

 19 21  0  0  0  0  0  0  0  0999 V2000
   -0.6125    0.3958    0.0000 N   0  0  3  0  0  0  0  0  0  0  0  0
   -0.1000    1.0958    0.0000 C   0  0  0  0  0  0  0  0  0  0  0  0
   -0.1000   -0.3667    0.0000 C   0  0  0  0  0  0  0  0  0  0  0  0
    0.7500   -0.0792    0.0000 C   0  0  0  0  0  0  0  0  0  0  0  0
    0.7500    0.8208    0.0000 C   0  0  0  0  0  0  0  0  0  0  0  0
   -1.4625    0.5958    0.0000 C   0  0  3  0  0  0  0  0  0  0  0  0
   -0.3708    1.7833    0.0000 O   0  0  0  0  0  0  0  0  0  0  0  0
   -0.4625   -1.0500    0.0000 O   0  0  0  0  0  0  0  0  0  0  0  0
   -2.3333    0.2958    0.0000 C   0  0  0  0  0  0  0  0  0  0  0  0
    1.5042    1.2500    0.0000 C   0  0  0  0  0  0  0  0  0  0  0  0
    1.5042   -0.5292    0.0000 C   0  0  0  0  0  0  0  0  0  0  0  0
   -1.4625    1.2958    0.0000 C   0  0  0  0  0  0  0  0  0  0  0  0
   -3.1458    0.7625    0.0000 C   0  0  0  0  0  0  0  0  0  0  0  0
   -2.3333   -0.6500    0.0000 C   0  0  0  0  0  0  0  0  0  0  0  0
    2.2875   -0.0917    0.0000 C   0  0  0  0  0  0  0  0  0  0  0  0
    2.2875    0.8208    0.0000 C   0  0  0  0  0  0  0  0  0  0  0  0
   -3.1458   -1.1167    0.0000 C   0  0  0  0  0  0  0  0  0  0  0  0
   -3.9583    0.2958    0.0000 C   0  0  0  0  0  0  0  0  0  0  0  0
   -3.9583   -0.6500    0.0000 C   0  0  0  0  0  0  0  0  0  0  0  0
  2  1  1  0  0  0  0
  3  1  1  0  0  0  0
  4  3  1  0  0  0  0
  5  2  1  0  0  0  0
  6  1  1  0  0  0  0
  7  2  2  0  0  0  0
  8  3  2  0  0  0  0
  9  6  1  0  0  0  0
 10  5  2  0  0  0  0
 11  4  2  0  0  0  0
 12  6  1  0  0  0  0
 13  9  1  0  0  0  0
 14  9  2  0  0  0  0
 15 11  1  0  0  0  0
 16 10  1  0  0  0  0
 17 14  1  0  0  0  0
 18 13  2  0  0  0  0
 19 17  2  0  0  0  0
  4  5  1  0  0  0  0
 15 16  2  0  0  0  0
 18 19  1  0  0  0  0
M  END
>  <ID> (5107098)
5107098

>  <Supplier> (5107098)
ChemBridge

>  <clogP> (5107098)
3.590000000000000e+000

>  <RB> (5107098)
2

>  <tPSA> (5107098)
3.738000000000000e+001

>  <Hacc> (5107098)
2

>  <Hdon> (5107098)
0

>  <LogSw> (5107098)
-4.099000000000000e+000

>  <Group> (5107098)
3

$$$$
7577530
  -ISIS-  03310818262D

 30 33  0  0  0  0  0  0  0  0999 V2000
    0.8917   -2.0542    0.0000 C   0  0  0  0  0  0  0  0  0  0  0  0
    0.4500   -2.6667    0.0000 N   0  0  0  0  0  0  0  0  0  0  0  0
    1.6417   -2.0542    0.0000 C   0  0  0  0  0  0  0  0  0  0  0  0
    0.4500   -1.4500    0.0000 S   0  0  0  0  0  0  0  0  0  0  0  0
    4.2667   -0.1042    0.0000 N   0  0  0  0  0  0  0  0  0  0  0  0
    3.8917   -0.7542    0.0000 C   0  0  0  0  0  0  0  0  0  0  0  0
    5.0167   -0.1042    0.0000 C   0  0  0  0  0  0  0  0  0  0  0  0
   -0.2708   -2.4375    0.0000 C   0  0  0  0  0  0  0  0  0  0  0  0
   -0.2708   -1.6792    0.0000 C   0  0  0  0  0  0  0  0  0  0  0  0
    3.1417   -0.7542    0.0000 N   0  0  0  0  0  0  0  0  0  0  0  0
    2.0167   -2.7042    0.0000 C   0  0  0  0  0  0  0  0  0  0  0  0
    2.0167   -1.4042    0.0000 C   0  0  0  0  0  0  0  0  0  0  0  0
    4.2667   -1.4042    0.0000 S   0  0  0  0  0  0  0  0  0  0  0  0
    5.3917    0.5458    0.0000 C   0  0  0  0  0  0  0  0  0  0  0  0
    2.7667   -1.4042    0.0000 C   0  0  0  0  0  0  0  0  0  0  0  0
    5.3917   -0.7542    0.0000 O   0  0  0  0  0  0  0  0  0  0  0  0
    2.7667   -2.7042    0.0000 C   0  0  0  0  0  0  0  0  0  0  0  0
    5.0167    1.1875    0.0000 C   0  0  0  0  0  0  0  0  0  0  0  0
    6.1417    0.5458    0.0000 C   0  0  0  0  0  0  0  0  0  0  0  0
    3.1417   -2.0542    0.0000 C   0  0  0  0  0  0  0  0  0  0  0  0
    6.5167    1.1958    0.0000 C   0  0  0  0  0  0  0  0  0  0  0  0
    5.3917    1.8375    0.0000 C   0  0  0  0  0  0  0  0  0  0  0  0
    1.6417   -3.3542    0.0000 O   0  0  0  0  0  0  0  0  0  0  0  0
    6.1417    1.8375    0.0000 C   0  0  0  0  0  0  0  0  0  0  0  0
   -0.9208   -2.8125    0.0000 C   0  0  0  0  0  0  0  0  0  0  0  0
   -0.9208   -1.3042    0.0000 C   0  0  0  0  0  0  0  0  0  0  0  0
    6.5167    2.4875    0.0000 C   0  0  0  0  0  0  0  0  0  0  0  0
    7.2667    2.4875    0.0000 C   0  0  0  0  0  0  0  0  0  0  0  0
   -1.5708   -1.6792    0.0000 C   0  0  0  0  0  0  0  0  0  0  0  0
   -1.5708   -2.4375    0.0000 C   0  0  0  0  0  0  0  0  0  0  0  0
  2  1  2  0  0  0  0
  3  1  1  0  0  0  0
  4  1  1  0  0  0  0
  5  6  1  0  0  0  0
  6 10  1  0  0  0  0
  7  5  1  0  0  0  0
  8  2  1  0  0  0  0
  9  4  1  0  0  0  0
 10 15  1  0  0  0  0
 11  3  1  0  0  0  0
 12  3  2  0  0  0  0
 13  6  2  0  0  0  0
 14  7  1  0  0  0  0
 15 12  1  0  0  0  0
 16  7  2  0  0  0  0
 17 11  2  0  0  0  0
 18 14  2  0  0  0  0
 19 14  1  0  0  0  0
 20 15  2  0  0  0  0
 21 19  2  0  0  0  0
 22 18  1  0  0  0  0
 23 11  1  0  0  0  0
 24 21  1  0  0  0  0
 25  8  1  0  0  0  0
 26  9  1  0  0  0  0
 27 24  1  0  0  0  0
 28 27  1  0  0  0  0
 29 26  2  0  0  0  0
 30 25  2  0  0  0  0
  9  8  2  0  0  0  0
 17 20  1  0  0  0  0
 29 30  1  0  0  0  0
 24 22  2  0  0  0  0
M  END
>  <ID> (7577530)
7577530

>  <Supplier> (7577530)
ChemBridge

>  <clogP> (7577530)
4.872000000000000e+000

>  <RB> (7577530)
3

>  <tPSA> (7577530)
7.425000000000000e+001

>  <Hacc> (7577530)
3

>  <Hdon> (7577530)
3

>  <LogSw> (7577530)
-6.876000000000000e+000

>  <Group> (7577530)
1

>  <Core> (7577530)
262

$$$$
7577533
  -ISIS-  03310818262D

 19 22  0  0  0  0  0  0  0  0999 V2000
    0.0917   -0.4000    0.0000 N   0  0  0  0  0  0  0  0  0  0  0  0
   -0.5333   -0.8125    0.0000 C   0  0  3  0  0  0  0  0  0  0  0  0
    0.7625   -0.7292    0.0000 C   0  0  0  0  0  0  0  0  0  0  0  0
   -1.2125   -0.5292    0.0000 C   0  0  3  0  0  0  0  0  0  0  0  0
   -0.5375   -1.5542    0.0000 C   0  0  3  0  0  0  0  0  0  0  0  0
    1.3875   -0.3167    0.0000 C   0  0  0  0  0  0  0  0  0  0  0  0
   -1.8625   -1.4875    0.0000 C   0  0  3  0  0  0  0  0  0  0  0  0
   -1.7208   -1.9042    0.0000 C   0  0  3  0  0  0  0  0  0  0  0  0
   -1.2208   -1.7250    0.0000 C   0  0  0  0  0  0  0  0  0  0  0  0
   -1.7208   -1.1292    0.0000 C   0  0  0  0  0  0  0  0  0  0  0  0
   -1.0333   -2.1792    0.0000 C   0  0  0  0  0  0  0  0  0  0  0  0
   -1.8708   -0.7667    0.0000 C   0  0  0  0  0  0  0  0  0  0  0  0
    0.8125   -1.4792    0.0000 O   0  0  0  0  0  0  0  0  0  0  0  0
    1.9667    0.8458    0.0000 N   0  0  0  0  0  0  0  0  0  0  0  0
   -2.4458   -2.1042    0.0000 C   0  0  0  0  0  0  0  0  0  0  0  0
    1.3417    0.4333    0.0000 C   0  0  0  0  0  0  0  0  0  0  0  0
    2.0625   -0.6542    0.0000 C   0  0  0  0  0  0  0  0  0  0  0  0
    2.6375    0.5125    0.0000 C   0  0  0  0  0  0  0  0  0  0  0  0
    2.6875   -0.2375    0.0000 C   0  0  0  0  0  0  0  0  0  0  0  0
  2  1  1  0  0  0  0
  3  1  1  0  0  0  0
  4  2  1  0  0  0  0
  5  2  1  0  0  0  0
  6  3  1  0  0  0  0
  7  9  1  0  0  0  0
  8 11  1  0  0  0  0
  9  5  1  0  0  0  0
 10  4  1  0  0  0  0
 11  5  1  0  0  0  0
 12  4  1  0  0  0  0
 13  3  2  0  0  0  0
 14 16  1  0  0  0  0
 15  8  1  0  0  0  0
 16  6  2  0  0  0  0
 17  6  1  0  0  0  0
 18 19  1  0  0  0  0
 19 17  2  0  0  0  0
 12  7  1  0  0  0  0
 10  8  1  0  0  0  0
 18 14  2  0  0  0  0
 15  7  1  0  0  0  0
M  END
>  <ID> (7577533)
7577533

>  <Supplier> (7577533)
ChemBridge

>  <clogP> (7577533)
2.767000000000000e+000

>  <RB> (7577533)
2

>  <tPSA> (7577533)
4.199000000000000e+001

>  <Hacc> (7577533)
2

>  <Hdon> (7577533)
1

>  <LogSw> (7577533)
-3.672000000000000e+000

>  <Group> (7577533)
3

$$$$
9124791
  -ISIS-  03310818292D

 21 23  0  0  0  0  0  0  0  0999 V2000
    2.6292    4.0667    0.0000 S   0  0  3  0  0  0  0  0  0  0  0  0
    2.2542    3.4208    0.0000 N   0  0  3  0  0  0  0  0  0  0  0  0
    3.3792    4.0667    0.0000 C   0  0  0  0  0  0  0  0  0  0  0  0
    2.6292    2.7708    0.0000 C   0  0  0  0  0  0  0  0  0  0  0  0
    3.3792    2.7708    0.0000 C   0  0  0  0  0  0  0  0  0  0  0  0
    3.7542    3.4208    0.0000 C   0  0  0  0  0  0  0  0  0  0  0  0
    1.5042    3.4208    0.0000 C   0  0  0  0  0  0  0  0  0  0  0  0
    2.7542    4.8042    0.0000 O   0  0  0  0  0  0  0  0  0  0  0  0
    1.9250    4.3250    0.0000 O   0  0  0  0  0  0  0  0  0  0  0  0
    1.1292    2.7708    0.0000 C   0  0  0  0  0  0  0  0  0  0  0  0
    2.2542    2.1250    0.0000 C   0  0  0  0  0  0  0  0  0  0  0  0
    3.7542    2.1250    0.0000 C   0  0  0  0  0  0  0  0  0  0  0  0
    0.3792    2.7708    0.0000 O   0  0  0  0  0  0  0  0  0  0  0  0
    3.3792    1.4750    0.0000 C   0  0  0  0  0  0  0  0  0  0  0  0
    1.5042    2.1250    0.0000 N   0  0  0  0  0  0  0  0  0  0  0  0
    2.6292    1.4750    0.0000 C   0  0  0  0  0  0  0  0  0  0  0  0
    3.7542    0.8250    0.0000 Cl  0  0  0  0  0  0  0  0  0  0  0  0
    3.7542    4.7167    0.0000 C   0  0  0  0  0  0  0  0  0  0  0  0
    4.5042    3.4208    0.0000 C   0  0  0  0  0  0  0  0  0  0  0  0
    4.8792    4.0667    0.0000 C   0  0  0  0  0  0  0  0  0  0  0  0
    4.5042    4.7167    0.0000 C   0  0  0  0  0  0  0  0  0  0  0  0
  2  1  1  0  0  0  0
  3  1  1  0  0  0  0
  4  2  1  0  0  0  0
  5  6  1  0  0  0  0
  6  3  2  0  0  0  0
  7  2  1  0  0  0  0
  8  1  2  0  0  0  0
  9  1  2  0  0  0  0
 10  7  1  0  0  0  0
 11  4  1  0  0  0  0
 12  5  1  0  0  0  0
 13 10  2  0  0  0  0
 14 12  2  0  0  0  0
 15 10  1  0  0  0  0
 16 11  2  0  0  0  0
 17 14  1  0  0  0  0
 18  3  1  0  0  0  0
 19  6  1  0  0  0  0
 20 21  1  0  0  0  0
 21 18  2  0  0  0  0
  4  5  2  0  0  0  0
 19 20  2  0  0  0  0
 16 14  1  0  0  0  0
M  END
>  <ID> (9124791)
9124791

>  <Supplier> (9124791)
ChemBridge

>  <clogP> (9124791)
2.500000000000000e+000

>  <RB> (9124791)
2

>  <tPSA> (9124791)
8.046999999999999e+001

>  <Hacc> (9124791)
3

>  <Hdon> (9124791)
1

>  <LogSw> (9124791)
-4.226000000000000e+000

>  <Group> (9124791)
2

>  <Core> (9124791)
516

$$$$
7577535
  -ISIS-  03310818262D

 30 32  0  0  0  0  0  0  0  0999 V2000
    5.8417   -2.3125    0.0000 N   0  0  3  0  0  0  0  0  0  0  0  0
    6.5125   -2.8042    0.0000 C   0  0  0  0  0  0  0  0  0  0  0  0
    6.0917   -1.5250    0.0000 C   0  0  0  0  0  0  0  0  0  0  0  0
    7.1875   -2.3167    0.0000 N   0  0  0  0  0  0  0  0  0  0  0  0
    6.9292   -1.5292    0.0000 N   0  0  0  0  0  0  0  0  0  0  0  0
    5.4667    0.5708    0.0000 C   0  0  0  0  0  0  0  0  0  0  0  0
    6.5042   -3.6375    0.0000 S   0  0  0  0  0  0  0  0  0  0  0  0
    3.6042   -5.3292    0.0000 C   0  0  0  0  0  0  0  0  0  0  0  0
    5.9542   -0.0917    0.0000 N   0  0  0  0  0  0  0  0  0  0  0  0
    4.6417    0.4958    0.0000 C   0  0  0  0  0  0  0  0  0  0  0  0
    4.5542   -3.6500    0.0000 C   0  0  0  0  0  0  0  0  0  0  0  0
    3.6000   -4.2125    0.0000 N   0  0  0  0  0  0  0  0  0  0  0  0
    5.6125   -0.8500    0.0000 C   0  0  0  0  0  0  0  0  0  0  0  0
    4.5667   -5.8917    0.0000 C   0  0  0  0  0  0  0  0  0  0  0  0
    2.6417   -5.9042    0.0000 C   0  0  0  0  0  0  0  0  0  0  0  0
    2.6417   -7.0167    0.0000 C   0  0  0  0  0  0  0  0  0  0  0  0
    4.5750   -7.0125    0.0000 C   0  0  0  0  0  0  0  0  0  0  0  0
    3.6125   -7.5625    0.0000 C   0  0  0  0  0  0  0  0  0  0  0  0
    5.8125    1.3333    0.0000 O   0  0  0  0  0  0  0  0  0  0  0  0
    4.5542   -2.5167    0.0000 O   0  0  0  0  0  0  0  0  0  0  0  0
    4.3000   -0.2667    0.0000 C   0  0  0  0  0  0  0  0  0  0  0  0
    5.5292   -4.1917    0.0000 C   0  0  0  0  0  0  0  0  0  0  0  0
    5.0500   -2.5667    0.0000 C   0  0  0  0  0  0  0  0  0  0  0  0
    5.5417   -7.5542    0.0000 Cl  0  0  0  0  0  0  0  0  0  0  0  0
    1.6792   -7.5792    0.0000 Cl  0  0  0  0  0  0  0  0  0  0  0  0
    4.1542    1.1708    0.0000 C   0  0  0  0  0  0  0  0  0  0  0  0
    4.7792   -0.9375    0.0000 C   0  0  0  0  0  0  0  0  0  0  0  0
    3.4667   -0.3500    0.0000 C   0  0  0  0  0  0  0  0  0  0  0  0
    3.3292    1.0875    0.0000 C   0  0  0  0  0  0  0  0  0  0  0  0
    2.9875    0.3333    0.0000 C   0  0  0  0  0  0  0  0  0  0  0  0
  2  1  1  0  0  0  0
  3  1  1  0  0  0  0
  4  2  2  0  0  0  0
  5  3  2  0  0  0  0
  6  9  1  0  0  0  0
  7  2  1  0  0  0  0
  8 12  1  0  0  0  0
  9 13  1  0  0  0  0
 10  6  1  0  0  0  0
 11 22  1  0  0  0  0
 12 11  1  0  0  0  0
 13  3  1  0  0  0  0
 14  8  2  0  0  0  0
 15  8  1  0  0  0  0
 16 15  2  0  0  0  0
 17 14  1  0  0  0  0
 18 16  1  0  0  0  0
 19  6  2  0  0  0  0
 20 11  2  0  0  0  0
 21 10  1  0  0  0  0
 22  7  1  0  0  0  0
 23  1  1  0  0  0  0
 24 17  1  0  0  0  0
 25 16  1  0  0  0  0
 26 10  2  0  0  0  0
 27 21  1  0  0  0  0
 28 21  2  0  0  0  0
 29 26  1  0  0  0  0
 30 29  2  0  0  0  0
  5  4  1  0  0  0  0
 28 30  1  0  0  0  0
 18 17  2  0  0  0  0
M  END
>  <ID> (7577535)
7577535

>  <Supplier> (7577535)
ChemBridge

>  <clogP> (7577535)
2.757000000000000e+000

>  <RB> (7577535)
7

>  <tPSA> (7577535)
8.891000000000000e+001

>  <Hacc> (7577535)
5

>  <Hdon> (7577535)
2

>  <LogSw> (7577535)
-5.958000000000000e+000

>  <Group> (7577535)
3

>  <Core> (7577535)
009

$$$$
5107091
  -ISIS-  03310818212D

 22 23  0  0  0  0  0  0  0  0999 V2000
    3.9042    0.4625    0.0000 N   0  3  0  0  0  0  0  0  0  0  0  0
    1.5500    1.8708    0.0000 C   0  0  0  0  0  0  0  0  0  0  0  0
    0.9792    1.5625    0.0000 N   0  0  3  0  0  0  0  0  0  0  0  0
    3.3375    0.8000    0.0000 C   0  0  0  0  0  0  0  0  0  0  0  0
    2.1917    1.4833    0.0000 C   0  0  0  0  0  0  0  0  0  0  0  0
    3.9667   -0.2167    0.0000 O   0  5  0  0  0  0  0  0  0  0  0  0
    4.5042    0.7458    0.0000 O   0  0  0  0  0  0  0  0  0  0  0  0
    0.4292    1.8958    0.0000 C   0  0  0  0  0  0  0  0  0  0  0  0
    1.5792    2.4833    0.0000 O   0  0  0  0  0  0  0  0  0  0  0  0
    2.7542    0.4708    0.0000 C   0  0  0  0  0  0  0  0  0  0  0  0
    3.3542    1.4625    0.0000 C   0  0  0  0  0  0  0  0  0  0  0  0
    2.8042    1.8000    0.0000 C   0  0  0  0  0  0  0  0  0  0  0  0
    2.1917    0.8208    0.0000 C   0  0  0  0  0  0  0  0  0  0  0  0
    0.9667    0.8625    0.0000 C   0  0  3  0  0  0  0  0  0  0  0  0
   -0.1500    1.5708    0.0000 C   0  0  0  0  0  0  0  0  0  0  0  0
    1.6667    0.4333    0.0000 C   0  0  0  0  0  0  0  0  0  0  0  0
    0.2792    0.4958    0.0000 C   0  0  0  0  0  0  0  0  0  0  0  0
   -0.1500    0.9125    0.0000 C   0  0  0  0  0  0  0  0  0  0  0  0
   -0.7333    1.9125    0.0000 C   0  0  0  0  0  0  0  0  0  0  0  0
   -0.7333    0.5708    0.0000 C   0  0  0  0  0  0  0  0  0  0  0  0
   -1.3125    1.5708    0.0000 C   0  0  0  0  0  0  0  0  0  0  0  0
   -1.3125    0.9125    0.0000 C   0  0  0  0  0  0  0  0  0  0  0  0
  2  5  1  0  0  0  0
  3  2  1  0  0  0  0
  4  1  1  0  0  0  0
  5 12  1  0  0  0  0
  6  1  1  0  0  0  0
  7  1  2  0  0  0  0
  8  3  1  0  0  0  0
  9  2  2  0  0  0  0
 10  4  2  0  0  0  0
 11  4  1  0  0  0  0
 12 11  2  0  0  0  0
 13 10  1  0  0  0  0
 14  3  1  0  0  0  0
 15  8  1  0  0  0  0
 16 14  1  0  0  0  0
 17 14  1  0  0  0  0
 18 15  2  0  0  0  0
 19 15  1  0  0  0  0
 20 18  1  0  0  0  0
 21 19  2  0  0  0  0
 22 21  1  0  0  0  0
 13  5  2  0  0  0  0
 20 22  2  0  0  0  0
M  CHG  2   1   1   6  -1
M  END
>  <ID> (5107091)
5107091

>  <Supplier> (5107091)
ChemBridge

>  <clogP> (5107091)
3.530000000000000e+000

>  <RB> (5107091)
3

>  <tPSA> (5107091)
6.345000000000000e+001

>  <Hacc> (5107091)
3

>  <Hdon> (5107091)
0

>  <LogSw> (5107091)
-4.781000000000002e+000

>  <Group> (5107091)
1

>  <Core> (5107091)
512

$$$$
5554649
  -ISIS-  03310818222D

 17 18  0  0  0  0  0  0  0  0999 V2000
   -2.8833   -1.4375    0.0000 C   0  0  0  0  0  0  0  0  0  0  0  0
   -4.2083   -2.2167    0.0000 C   0  0  0  0  0  0  0  0  0  0  0  0
   -1.6000   -2.2000    0.0000 N   0  0  0  0  0  0  0  0  0  0  0  0
   -4.2083   -3.7375    0.0000 N   0  0  0  0  0  0  0  0  0  0  0  0
    1.0000    0.8208    0.0000 C   0  0  0  0  0  0  0  0  0  0  0  0
   -0.3000   -1.4375    0.0000 C   0  0  0  0  0  0  0  0  0  0  0  0
   -2.9000    0.0833    0.0000 O   0  0  0  0  0  0  0  0  0  0  0  0
   -0.3000    0.0833    0.0000 C   0  0  0  0  0  0  0  0  0  0  0  0
    2.3167    0.0833    0.0000 C   0  0  0  0  0  0  0  0  0  0  0  0
   -6.7792   -2.2167    0.0000 N   0  0  0  0  0  0  0  0  0  0  0  0
    2.3167   -1.4375    0.0000 C   0  0  0  0  0  0  0  0  0  0  0  0
   -5.4833   -1.4792    0.0000 C   0  0  0  0  0  0  0  0  0  0  0  0
    1.0167   -2.2000    0.0000 C   0  0  0  0  0  0  0  0  0  0  0  0
   -5.4833   -4.4792    0.0000 C   0  0  0  0  0  0  0  0  0  0  0  0
   -6.7792   -3.7375    0.0000 C   0  0  0  0  0  0  0  0  0  0  0  0
    0.9792    2.3208    0.0000 C   0  0  0  0  0  0  0  0  0  0  0  0
    3.6375    0.8458    0.0000 C   0  0  0  0  0  0  0  0  0  0  0  0
  2  1  1  0  0  0  0
  3  1  1  0  0  0  0
  4  2  1  0  0  0  0
  5  8  1  0  0  0  0
  6  3  1  0  0  0  0
  7  1  2  0  0  0  0
  8  6  2  0  0  0  0
  9 11  1  0  0  0  0
 10 12  1  0  0  0  0
 11 13  2  0  0  0  0
 12  2  2  0  0  0  0
 13  6  1  0  0  0  0
 14  4  2  0  0  0  0
 15 10  2  0  0  0  0
 16  5  1  0  0  0  0
 17  9  1  0  0  0  0
 14 15  1  0  0  0  0
  9  5  2  0  0  0  0
M  END
>  <ID> (5554649)
5554649

>  <Supplier> (5554649)
ChemBridge

>  <clogP> (5554649)
2.370000000000000e+000

>  <RB> (5554649)
2

>  <tPSA> (5554649)
5.488000000000000e+001

>  <Hacc> (5554649)
3

>  <Hdon> (5554649)
1

>  <LogSw> (5554649)
-2.882000000000000e+000

>  <Group> (5554649)
3

$$$$
6390955
  -ISIS-  03310818232D

 30 32  0  0  0  0  0  0  0  0999 V2000
    0.8500    0.6708    0.0000 C   0  0  0  0  0  0  0  0  0  0  0  0
   -0.1500    1.2708    0.0000 C   0  0  0  0  0  0  0  0  0  0  0  0
    1.2000    1.2500    0.0000 C   0  0  0  0  0  0  0  0  0  0  0  0
    0.1667    0.6833    0.0000 N   0  0  0  0  0  0  0  0  0  0  0  0
   -0.8333    1.2833    0.0000 C   0  0  0  0  0  0  0  0  0  0  0  0
    1.8667    1.2500    0.0000 N   0  0  3  0  0  0  0  0  0  0  0  0
    1.1792    0.0833    0.0000 C   0  0  0  0  0  0  0  0  0  0  0  0
    0.2542   -2.8500    0.0000 C   0  0  0  0  0  0  0  0  0  0  0  0
   -1.1958    1.8708    0.0000 C   0  0  0  0  0  0  0  0  0  0  0  0
    0.1875    1.8458    0.0000 O   0  0  0  0  0  0  0  0  0  0  0  0
    0.8667    1.8458    0.0000 O   0  0  0  0  0  0  0  0  0  0  0  0
   -0.1125   -2.2875    0.0000 O   0  0  0  0  0  0  0  0  0  0  0  0
   -0.0500   -3.4375    0.0000 O   0  0  0  0  0  0  0  0  0  0  0  0
    0.8375   -0.5000    0.0000 C   0  0  0  0  0  0  0  0  0  0  0  0
    3.2167    1.2458    0.0000 O   0  0  0  0  0  0  0  0  0  0  0  0
    0.1875   -1.6875    0.0000 C   0  0  0  0  0  0  0  0  0  0  0  0
   -0.8708    2.4625    0.0000 Cl  0  0  0  0  0  0  0  0  0  0  0  0
   -1.1708    0.6958    0.0000 C   0  0  0  0  0  0  0  0  0  0  0  0
    1.1792   -1.0667    0.0000 C   0  0  0  0  0  0  0  0  0  0  0  0
    0.1500   -0.5042    0.0000 C   0  0  0  0  0  0  0  0  0  0  0  0
   -0.1625   -1.1000    0.0000 C   0  0  0  0  0  0  0  0  0  0  0  0
    0.8542   -1.6667    0.0000 C   0  0  0  0  0  0  0  0  0  0  0  0
    2.2042    1.8208    0.0000 C   0  0  0  0  0  0  0  0  0  0  0  0
    2.1917    0.6708    0.0000 C   0  0  0  0  0  0  0  0  0  0  0  0
    0.9292   -2.8042    0.0000 C   0  0  0  0  0  0  0  0  0  0  0  0
    2.8792    1.8125    0.0000 C   0  0  0  0  0  0  0  0  0  0  0  0
    2.8667    0.6625    0.0000 C   0  0  0  0  0  0  0  0  0  0  0  0
   -1.8708    1.8708    0.0000 C   0  0  0  0  0  0  0  0  0  0  0  0
   -1.8833    0.6833    0.0000 C   0  0  0  0  0  0  0  0  0  0  0  0
   -2.2208    1.2958    0.0000 C   0  0  0  0  0  0  0  0  0  0  0  0
  2  4  1  0  0  0  0
  3  1  1  0  0  0  0
  4  1  1  0  0  0  0
  5  2  1  0  0  0  0
  6  3  1  0  0  0  0
  7  1  2  0  0  0  0
  8 12  1  0  0  0  0
  9  5  2  0  0  0  0
 10  2  2  0  0  0  0
 11  3  2  0  0  0  0
 12 16  1  0  0  0  0
 13  8  2  0  0  0  0
 14  7  1  0  0  0  0
 15 27  1  0  0  0  0
 16 21  2  0  0  0  0
 17  9  1  0  0  0  0
 18  5  1  0  0  0  0
 19 14  1  0  0  0  0
 20 14  2  0  0  0  0
 21 20  1  0  0  0  0
 22 19  2  0  0  0  0
 23  6  1  0  0  0  0
 24  6  1  0  0  0  0
 25  8  1  0  0  0  0
 26 23  1  0  0  0  0
 27 24  1  0  0  0  0
 28  9  1  0  0  0  0
 29 18  2  0  0  0  0
 30 29  1  0  0  0  0
 22 16  1  0  0  0  0
 15 26  1  0  0  0  0
 28 30  2  0  0  0  0
M  END
>  <ID> (6390955)
6390955

>  <Supplier> (6390955)
ChemBridge

>  <clogP> (6390955)
2.250000000000000e+000

>  <RB> (6390955)
6

>  <tPSA> (6390955)
8.494000000000000e+001

>  <Hacc> (6390955)
5

>  <Hdon> (6390955)
1

>  <LogSw> (6390955)
-4.248000000000000e+000

>  <Group> (6390955)
2

>  <Core> (6390955)
008

$$$$
5554642
  -ISIS-  03310818222D

 25 28  0  0  0  0  0  0  0  0999 V2000
   -0.6000    1.3958    0.0000 C   0  0  0  0  0  0  0  0  0  0  0  0
   -1.2833    1.7958    0.0000 N   0  0  0  0  0  0  0  0  0  0  0  0
   -1.9708    1.3958    0.0000 C   0  0  0  0  0  0  0  0  0  0  0  0
    0.0792    1.7833    0.0000 N   0  0  3  0  0  0  0  0  0  0  0  0
    1.4000    2.5708    0.0000 N   0  0  3  0  0  0  0  0  0  0  0  0
   -1.9708    0.6000    0.0000 C   0  0  0  0  0  0  0  0  0  0  0  0
   -1.2833    0.2125    0.0000 C   0  0  0  0  0  0  0  0  0  0  0  0
   -0.6000    0.6000    0.0000 C   0  0  0  0  0  0  0  0  0  0  0  0
   -2.6500    1.7708    0.0000 C   0  0  0  0  0  0  0  0  0  0  0  0
   -2.6500    0.2000    0.0000 C   0  0  0  0  0  0  0  0  0  0  0  0
    0.0792    2.5625    0.0000 C   0  0  0  0  0  0  0  0  0  0  0  0
    0.7542    1.4125    0.0000 C   0  0  0  0  0  0  0  0  0  0  0  0
    0.7542    2.9583    0.0000 C   0  0  0  0  0  0  0  0  0  0  0  0
    1.4000    1.7708    0.0000 C   0  0  0  0  0  0  0  0  0  0  0  0
    2.0792    2.9583    0.0000 C   0  0  0  0  0  0  0  0  0  0  0  0
   -3.3458    1.3958    0.0000 C   0  0  0  0  0  0  0  0  0  0  0  0
   -3.3458    0.6000    0.0000 C   0  0  0  0  0  0  0  0  0  0  0  0
   -4.0208    1.7833    0.0000 O   0  0  0  0  0  0  0  0  0  0  0  0
   -1.2833   -0.5667    0.0000 C   0  0  0  0  0  0  0  0  0  0  0  0
    2.7500    2.5708    0.0000 C   0  0  0  0  0  0  0  0  0  0  0  0
    2.0792    3.7458    0.0000 C   0  0  0  0  0  0  0  0  0  0  0  0
   -4.0000    2.5500    0.0000 C   0  0  0  0  0  0  0  0  0  0  0  0
    2.7500    4.1292    0.0000 C   0  0  0  0  0  0  0  0  0  0  0  0
    3.4042    2.9583    0.0000 C   0  0  0  0  0  0  0  0  0  0  0  0
    3.4042    3.7458    0.0000 C   0  0  0  0  0  0  0  0  0  0  0  0
  2  1  2  0  0  0  0
  3  2  1  0  0  0  0
  4  1  1  0  0  0  0
  5 14  1  0  0  0  0
  6  7  1  0  0  0  0
  7  8  2  0  0  0  0
  8  1  1  0  0  0  0
  9  3  1  0  0  0  0
 10  6  1  0  0  0  0
 11  4  1  0  0  0  0
 12  4  1  0  0  0  0
 13 11  1  0  0  0  0
 14 12  1  0  0  0  0
 15  5  1  0  0  0  0
 16  9  2  0  0  0  0
 17 10  2  0  0  0  0
 18 16  1  0  0  0  0
 19  7  1  0  0  0  0
 20 15  2  0  0  0  0
 21 15  1  0  0  0  0
 22 18  1  0  0  0  0
 23 21  2  0  0  0  0
 24 20  1  0  0  0  0
 25 23  1  0  0  0  0
  6  3  2  0  0  0  0
 13  5  1  0  0  0  0
 17 16  1  0  0  0  0
 25 24  2  0  0  0  0
M  END
>  <ID> (5554642)
5554642

>  <Supplier> (5554642)
ChemBridge

>  <clogP> (5554642)
5.270000000000001e+000

>  <RB> (5554642)
2

>  <tPSA> (5554642)
2.860000000000000e+001

>  <Hacc> (5554642)
2

>  <Hdon> (5554642)
0

>  <LogSw> (5554642)
-6.132000000000000e+000

>  <Group> (5554642)
3

>  <Core> (5554642)
421

$$$$
5554640
  -ISIS-  03310818222D

 18 19  0  0  0  0  0  0  0  0999 V2000
   -2.4708    2.5208    0.0000 C   0  0  0  0  0  0  0  0  0  0  0  0
   -1.8458    2.1500    0.0000 N   0  0  0  0  0  0  0  0  0  0  0  0
    0.7792    1.4458    0.0000 N   0  0  0  0  0  0  0  0  0  0  0  0
   -2.4958    3.2500    0.0000 O   0  0  0  0  0  0  0  0  0  0  0  0
   -3.7708    2.4958    0.0000 O   0  0  0  0  0  0  0  0  0  0  0  0
   -3.1125    2.1458    0.0000 C   0  0  0  0  0  0  0  0  0  0  0  0
   -1.2000    2.5333    0.0000 C   0  0  0  0  0  0  0  0  0  0  0  0
   -4.3958    2.1208    0.0000 C   0  0  0  0  0  0  0  0  0  0  0  0
   -0.5333    2.1833    0.0000 C   0  0  0  0  0  0  0  0  0  0  0  0
    0.1375    1.0625    0.0000 C   0  0  0  0  0  0  0  0  0  0  0  0
    0.7500    2.1958    0.0000 C   0  0  0  0  0  0  0  0  0  0  0  0
   -0.5333    1.4458    0.0000 C   0  0  0  0  0  0  0  0  0  0  0  0
    0.1042    2.5625    0.0000 C   0  0  0  0  0  0  0  0  0  0  0  0
   -5.0500    2.4833    0.0000 C   0  0  0  0  0  0  0  0  0  0  0  0
   -4.3958    1.3958    0.0000 C   0  0  0  0  0  0  0  0  0  0  0  0
   -5.6708    2.1125    0.0000 C   0  0  0  0  0  0  0  0  0  0  0  0
   -5.0208    1.0208    0.0000 C   0  0  0  0  0  0  0  0  0  0  0  0
   -5.6708    1.3708    0.0000 C   0  0  0  0  0  0  0  0  0  0  0  0
  2  1  1  0  0  0  0
  3 11  2  0  0  0  0
  4  1  2  0  0  0  0
  5  6  1  0  0  0  0
  6  1  1  0  0  0  0
  7  2  1  0  0  0  0
  8  5  1  0  0  0  0
  9  7  1  0  0  0  0
 10 12  2  0  0  0  0
 11 13  1  0  0  0  0
 12  9  1  0  0  0  0
 13  9  2  0  0  0  0
 14  8  2  0  0  0  0
 15  8  1  0  0  0  0
 16 14  1  0  0  0  0
 17 15  2  0  0  0  0
 18 17  1  0  0  0  0
  3 10  1  0  0  0  0
 18 16  2  0  0  0  0
M  END
>  <ID> (5554640)
5554640

>  <Supplier> (5554640)
ChemBridge

>  <clogP> (5554640)
1.200000000000000e+000

>  <RB> (5554640)
5

>  <tPSA> (5554640)
5.121999999999999e+001

>  <Hacc> (5554640)
3

>  <Hdon> (5554640)
1

>  <LogSw> (5554640)
-6.930000000000002e-001

>  <Group> (5554640)
3

>  <Core> (5554640)
315

$$$$
5554641
  -ISIS-  03310818222D

 22 23  0  0  0  0  0  0  0  0999 V2000
   -2.1333   -0.3375    0.0000 C   0  0  0  0  0  0  0  0  0  0  0  0
   -2.5708   -1.1000    0.0000 C   0  0  0  0  0  0  0  0  0  0  0  0
   -2.1125   -1.8792    0.0000 N   0  3  0  0  0  0  0  0  0  0  0  0
   -4.7708   -0.3375    0.0000 N   0  3  0  0  0  0  0  0  0  0  0  0
   -1.2500   -0.3375    0.0000 C   0  0  0  0  0  0  0  0  0  0  0  0
   -3.4500   -1.1000    0.0000 C   0  0  0  0  0  0  0  0  0  0  0  0
   -3.8958   -0.3375    0.0000 C   0  0  0  0  0  0  0  0  0  0  0  0
   -0.8125   -1.1000    0.0000 N   0  0  0  0  0  0  0  0  0  0  0  0
   -2.5708    0.4208    0.0000 C   0  0  0  0  0  0  0  0  0  0  0  0
   -2.5500   -2.6375    0.0000 O   0  5  0  0  0  0  0  0  0  0  0  0
   -5.2208    0.4208    0.0000 O   0  5  0  0  0  0  0  0  0  0  0  0
   -1.2333   -1.8792    0.0000 O   0  0  0  0  0  0  0  0  0  0  0  0
   -5.2208   -1.1000    0.0000 O   0  0  0  0  0  0  0  0  0  0  0  0
   -0.8125    0.4208    0.0000 O   0  0  0  0  0  0  0  0  0  0  0  0
   -3.4500    0.4208    0.0000 C   0  0  0  0  0  0  0  0  0  0  0  0
    0.0875   -1.1000    0.0000 C   0  0  0  0  0  0  0  0  0  0  0  0
    1.8500   -1.1000    0.0000 C   0  0  0  0  0  0  0  0  0  0  0  0
    2.7292   -1.1000    0.0000 Br  0  0  0  0  0  0  0  0  0  0  0  0
    0.5292   -0.3375    0.0000 C   0  0  0  0  0  0  0  0  0  0  0  0
    0.5292   -1.8542    0.0000 C   0  0  0  0  0  0  0  0  0  0  0  0
    1.4042   -1.8542    0.0000 C   0  0  0  0  0  0  0  0  0  0  0  0
    1.4042   -0.3375    0.0000 C   0  0  0  0  0  0  0  0  0  0  0  0
  2  1  1  0  0  0  0
  3  2  1  0  0  0  0
  4  7  1  0  0  0  0
  5  1  1  0  0  0  0
  6  2  2  0  0  0  0
  7 15  2  0  0  0  0
  8  5  1  0  0  0  0
  9  1  2  0  0  0  0
 10  3  1  0  0  0  0
 11  4  1  0  0  0  0
 12  3  2  0  0  0  0
 13  4  2  0  0  0  0
 14  5  2  0  0  0  0
 15  9  1  0  0  0  0
 16  8  1  0  0  0  0
 17 21  1  0  0  0  0
 18 17  1  0  0  0  0
 19 16  2  0  0  0  0
 20 16  1  0  0  0  0
 21 20  2  0  0  0  0
 22 19  1  0  0  0  0
  7  6  1  0  0  0  0
 17 22  2  0  0  0  0
M  CHG  4   3   1   4   1  10  -1  11  -1
M  END
>  <ID> (5554641)
5554641

>  <Supplier> (5554641)
ChemBridge

>  <clogP> (5554641)
2.680000000000000e+000

>  <RB> (5554641)
2

>  <tPSA> (5554641)
1.153800000000000e+002

>  <Hacc> (5554641)
5

>  <Hdon> (5554641)
1

>  <LogSw> (5554641)
-4.548000000000000e+000

>  <Group> (5554641)
1

>  <Core> (5554641)
511

$$$$
5554646
  -ISIS-  03310818222D

 24 25  0  0  0  0  0  0  0  0999 V2000
    4.8042   -1.9375    0.0000 C   0  0  0  0  0  0  0  0  0  0  0  0
    6.1042   -1.9500    0.0000 C   0  0  0  0  0  0  0  0  0  0  0  0
    5.4542   -2.3167    0.0000 C   0  0  0  0  0  0  0  0  0  0  0  0
    2.8542   -0.8167    0.0000 C   0  0  0  0  0  0  0  0  0  0  0  0
    6.1042   -1.2000    0.0000 C   0  0  0  0  0  0  0  0  0  0  0  0
    3.5042   -1.9375    0.0000 N   0  0  0  0  0  0  0  0  0  0  0  0
    1.5542   -0.8167    0.0000 N   0  0  0  0  0  0  0  0  0  0  0  0
    4.8042   -1.1875    0.0000 C   0  0  0  0  0  0  0  0  0  0  0  0
    5.4542   -0.8167    0.0000 C   0  0  0  0  0  0  0  0  0  0  0  0
    3.5042   -1.1875    0.0000 N   0  0  0  0  0  0  0  0  0  0  0  0
    4.1542   -2.3167    0.0000 C   0  0  0  0  0  0  0  0  0  0  0  0
    0.9042   -1.1875    0.0000 C   0  0  0  0  0  0  0  0  0  0  0  0
    2.8542   -0.0667    0.0000 O   0  0  0  0  0  0  0  0  0  0  0  0
    2.2042   -1.1875    0.0000 C   0  0  0  0  0  0  0  0  0  0  0  0
    0.2542   -0.8042    0.0000 C   0  0  0  0  0  0  0  0  0  0  0  0
    6.7542   -2.3167    0.0000 Br  0  0  0  0  0  0  0  0  0  0  0  0
    5.4542   -0.0667    0.0000 Br  0  0  0  0  0  0  0  0  0  0  0  0
    5.4542   -3.0667    0.0000 O   0  0  0  0  0  0  0  0  0  0  0  0
    0.9042   -1.9500    0.0000 C   0  0  0  0  0  0  0  0  0  0  0  0
    0.2542   -0.0542    0.0000 C   0  0  0  0  0  0  0  0  0  0  0  0
   -0.3833   -1.1875    0.0000 C   0  0  0  0  0  0  0  0  0  0  0  0
    4.8042   -3.4375    0.0000 C   0  0  0  0  0  0  0  0  0  0  0  0
    0.2542   -2.3167    0.0000 C   0  0  0  0  0  0  0  0  0  0  0  0
   -0.3833   -1.9500    0.0000 C   0  0  0  0  0  0  0  0  0  0  0  0
  2  3  2  0  0  0  0
  3  1  1  0  0  0  0
  4 10  1  0  0  0  0
  5  9  2  0  0  0  0
  6 11  2  0  0  0  0
  7 14  1  0  0  0  0
  8  1  2  0  0  0  0
  9  8  1  0  0  0  0
 10  6  1  0  0  0  0
 11  1  1  0  0  0  0
 12  7  1  0  0  0  0
 13  4  2  0  0  0  0
 14  4  1  0  0  0  0
 15 12  1  0  0  0  0
 16  2  1  0  0  0  0
 17  9  1  0  0  0  0
 18  3  1  0  0  0  0
 19 12  2  0  0  0  0
 20 15  1  0  0  0  0
 21 15  2  0  0  0  0
 22 18  1  0  0  0  0
 23 19  1  0  0  0  0
 24 23  2  0  0  0  0
  5  2  1  0  0  0  0
 24 21  1  0  0  0  0
M  END
>  <ID> (5554646)
5554646

>  <Supplier> (5554646)
ChemBridge

>  <clogP> (5554646)
4.490000000000000e+000

>  <RB> (5554646)
5

>  <tPSA> (5554646)
6.272000000000000e+001

>  <Hacc> (5554646)
3

>  <Hdon> (5554646)
2

>  <LogSw> (5554646)
-6.351999999999999e+000

>  <Group> (5554646)
1

>  <Core> (5554646)
216

$$$$
5554644
  -ISIS-  03310818222D

 22 24  0  0  0  0  0  0  0  0999 V2000
   -0.1625   -1.4792    0.0000 C   0  0  0  0  0  0  0  0  0  0  0  0
    0.6167   -0.6167    0.0000 N   0  0  0  0  0  0  0  0  0  0  0  0
   -1.3000   -1.4542    0.0000 N   0  0  0  0  0  0  0  0  0  0  0  0
    1.6375   -1.1000    0.0000 C   0  0  0  0  0  0  0  0  0  0  0  0
   -1.8625   -0.4792    0.0000 C   0  0  0  0  0  0  0  0  0  0  0  0
    0.4167   -2.4542    0.0000 S   0  0  0  0  0  0  0  0  0  0  0  0
    1.5167   -2.2000    0.0000 C   0  0  0  0  0  0  0  0  0  0  0  0
   -3.0000   -0.4792    0.0000 C   0  0  0  0  0  0  0  0  0  0  0  0
    2.6000   -0.4792    0.0000 C   0  0  0  0  0  0  0  0  0  0  0  0
   -1.3000    0.5208    0.0000 O   0  0  0  0  0  0  0  0  0  0  0  0
   -3.5625    0.5208    0.0000 C   0  0  0  0  0  0  0  0  0  0  0  0
    2.5375    0.6833    0.0000 C   0  0  0  0  0  0  0  0  0  0  0  0
    3.6167   -1.0000    0.0000 C   0  0  0  0  0  0  0  0  0  0  0  0
   -4.7083    0.5458    0.0000 C   0  0  0  0  0  0  0  0  0  0  0  0
    4.5167    0.7833    0.0000 C   0  0  0  0  0  0  0  0  0  0  0  0
    3.5000    1.3000    0.0000 C   0  0  0  0  0  0  0  0  0  0  0  0
    4.5792   -0.3792    0.0000 C   0  0  0  0  0  0  0  0  0  0  0  0
   -5.2833    1.5458    0.0000 Br  0  0  0  0  0  0  0  0  0  0  0  0
    5.5000    1.4000    0.0000 F   0  0  0  0  0  0  0  0  0  0  0  0
   -3.5833   -1.4542    0.0000 C   0  0  0  0  0  0  0  0  0  0  0  0
   -4.7208   -1.4375    0.0000 C   0  0  0  0  0  0  0  0  0  0  0  0
   -5.2833   -0.4542    0.0000 C   0  0  0  0  0  0  0  0  0  0  0  0
  2  1  2  0  0  0  0
  3  1  1  0  0  0  0
  4  2  1  0  0  0  0
  5  3  1  0  0  0  0
  6  1  1  0  0  0  0
  7  6  1  0  0  0  0
  8  5  1  0  0  0  0
  9  4  1  0  0  0  0
 10  5  2  0  0  0  0
 11  8  2  0  0  0  0
 12  9  2  0  0  0  0
 13  9  1  0  0  0  0
 14 11  1  0  0  0  0
 15 17  1  0  0  0  0
 16 12  1  0  0  0  0
 17 13  2  0  0  0  0
 18 14  1  0  0  0  0
 19 15  1  0  0  0  0
 20  8  1  0  0  0  0
 21 20  2  0  0  0  0
 22 21  1  0  0  0  0
  7  4  2  0  0  0  0
 15 16  2  0  0  0  0
 22 14  2  0  0  0  0
M  END
>  <ID> (5554644)
5554644

>  <Supplier> (5554644)
ChemBridge

>  <clogP> (5554644)
5.000000000000000e+000

>  <RB> (5554644)
3

>  <tPSA> (5554644)
4.199000000000000e+001

>  <Hacc> (5554644)
2

>  <Hdon> (5554644)
1

>  <LogSw> (5554644)
-6.220000000000000e+000

>  <Group> (5554644)
2

>  <Core> (5554644)
227

$$$$
9158237
  -ISIS-  03310818292D

 26 28  0  0  0  0  0  0  0  0999 V2000
    4.9917    2.2375    0.0000 C   0  0  0  0  0  0  0  0  0  0  0  0
    7.2417    0.9375    0.0000 N   0  0  0  0  0  0  0  0  0  0  0  0
    6.8667    1.5875    0.0000 C   0  0  0  0  0  0  0  0  0  0  0  0
    4.6167    2.8958    0.0000 N   0  0  0  0  0  0  0  0  0  0  0  0
    6.1167    1.5875    0.0000 S   0  0  0  0  0  0  0  0  0  0  0  0
    5.7417    2.2375    0.0000 C   0  0  3  0  0  0  0  0  0  0  0  0
    7.9917    0.9375    0.0000 C   0  0  0  0  0  0  0  0  0  0  0  0
    1.2417    2.2375    0.0000 C   0  0  0  0  0  0  0  0  0  0  0  0
    1.6167    2.8958    0.0000 N   0  0  0  0  0  0  0  0  0  0  0  0
    4.6167    1.5875    0.0000 O   0  0  0  0  0  0  0  0  0  0  0  0
    0.4917    2.2375    0.0000 O   0  0  0  0  0  0  0  0  0  0  0  0
    8.3667    1.5875    0.0000 C   0  0  0  0  0  0  0  0  0  0  0  0
    3.8667    2.8958    0.0000 C   0  0  0  0  0  0  0  0  0  0  0  0
    7.9917    2.2375    0.0000 C   0  0  0  0  0  0  0  0  0  0  0  0
    7.2417    2.2375    0.0000 C   0  0  0  0  0  0  0  0  0  0  0  0
    2.3667    2.8958    0.0000 C   0  0  0  0  0  0  0  0  0  0  0  0
    3.4917    2.2375    0.0000 C   0  0  0  0  0  0  0  0  0  0  0  0
    3.4917    3.5458    0.0000 C   0  0  0  0  0  0  0  0  0  0  0  0
    2.7417    3.5458    0.0000 C   0  0  0  0  0  0  0  0  0  0  0  0
    2.7417    2.2375    0.0000 C   0  0  0  0  0  0  0  0  0  0  0  0
    1.6167    1.5875    0.0000 C   0  0  0  0  0  0  0  0  0  0  0  0
    8.3667    0.2958    0.0000 C   0  0  0  0  0  0  0  0  0  0  0  0
    6.1167    2.8958    0.0000 C   0  0  0  0  0  0  0  0  0  0  0  0
    9.1167    1.5875    0.0000 C   0  0  0  0  0  0  0  0  0  0  0  0
    9.1167    0.2958    0.0000 C   0  0  0  0  0  0  0  0  0  0  0  0
    9.4917    0.9375    0.0000 C   0  0  0  0  0  0  0  0  0  0  0  0
  2  3  2  0  0  0  0
  3  5  1  0  0  0  0
  4  1  1  0  0  0  0
  5  6  1  0  0  0  0
  6  1  1  0  0  0  0
  7  2  1  0  0  0  0
  8  9  1  0  0  0  0
  9 16  1  0  0  0  0
 10  1  2  0  0  0  0
 11  8  2  0  0  0  0
 12 14  1  0  0  0  0
 13  4  1  0  0  0  0
 14 15  2  0  0  0  0
 15  3  1  0  0  0  0
 16 19  1  0  0  0  0
 17 13  2  0  0  0  0
 18 13  1  0  0  0  0
 19 18  2  0  0  0  0
 20 17  1  0  0  0  0
 21  8  1  0  0  0  0
 22  7  1  0  0  0  0
 23  6  1  0  0  0  0
 24 12  1  0  0  0  0
 25 22  2  0  0  0  0
 26 24  2  0  0  0  0
 16 20  2  0  0  0  0
  7 12  2  0  0  0  0
 26 25  1  0  0  0  0
M  END
>  <ID> (9158237)
9158237

>  <Supplier> (9158237)
ChemBridge

>  <clogP> (9158237)
3.034000000000000e+000

>  <RB> (9158237)
5

>  <tPSA> (9158237)
7.109000000000000e+001

>  <Hacc> (9158237)
3

>  <Hdon> (9158237)
2

>  <LogSw> (9158237)
-4.456000000000000e+000

>  <Group> (9158237)
2

$$$$
9124790
  -ISIS-  03310818292D

 28 31  0  0  0  0  0  0  0  0999 V2000
    3.3292    4.5417    0.0000 C   0  0  0  0  0  0  0  0  0  0  0  0
    3.9792    4.9167    0.0000 C   0  0  0  0  0  0  0  0  0  0  0  0
    2.6500    4.8417    0.0000 O   0  0  0  0  0  0  0  0  0  0  0  0
    5.9292    4.5417    0.0000 C   0  0  0  0  0  0  0  0  0  0  0  0
    5.2792    4.9167    0.0000 C   0  0  0  0  0  0  0  0  0  0  0  0
    3.2542    3.8000    0.0000 C   0  0  0  0  0  0  0  0  0  0  0  0
    5.9292    3.7958    0.0000 N   0  0  3  0  0  0  0  0  0  0  0  0
    4.6292    4.5417    0.0000 N   0  0  0  0  0  0  0  0  0  0  0  0
    5.9292    2.2958    0.0000 N   0  0  3  0  0  0  0  0  0  0  0  0
    5.9292    1.5458    0.0000 C   0  0  0  0  0  0  0  0  0  0  0  0
    2.1417    4.2917    0.0000 C   0  0  0  0  0  0  0  0  0  0  0  0
    2.5167    3.6458    0.0000 C   0  0  0  0  0  0  0  0  0  0  0  0
    6.5792    3.4208    0.0000 C   0  0  0  0  0  0  0  0  0  0  0  0
    5.2792    3.4208    0.0000 C   0  0  0  0  0  0  0  0  0  0  0  0
    6.5792    4.9167    0.0000 C   0  0  0  0  0  0  0  0  0  0  0  0
    5.2792    2.6708    0.0000 C   0  0  0  0  0  0  0  0  0  0  0  0
    6.5792    2.6708    0.0000 C   0  0  0  0  0  0  0  0  0  0  0  0
    3.9792    5.6667    0.0000 O   0  0  0  0  0  0  0  0  0  0  0  0
    6.5792    1.1708    0.0000 O   0  0  0  0  0  0  0  0  0  0  0  0
    7.2292    4.5417    0.0000 Cl  0  0  0  0  0  0  0  0  0  0  0  0
    5.2792    5.6667    0.0000 C   0  0  0  0  0  0  0  0  0  0  0  0
    5.2792    1.1708    0.0000 C   0  0  0  0  0  0  0  0  0  0  0  0
    5.9292    6.0417    0.0000 C   0  0  0  0  0  0  0  0  0  0  0  0
    1.3917    4.2917    0.0000 C   0  0  0  0  0  0  0  0  0  0  0  0
    2.1417    2.9958    0.0000 C   0  0  0  0  0  0  0  0  0  0  0  0
    6.5792    5.6667    0.0000 C   0  0  0  0  0  0  0  0  0  0  0  0
    1.3917    2.9958    0.0000 C   0  0  0  0  0  0  0  0  0  0  0  0
    1.0167    3.6458    0.0000 C   0  0  0  0  0  0  0  0  0  0  0  0
  2  1  1  0  0  0  0
  3  1  1  0  0  0  0
  4  5  2  0  0  0  0
  5  8  1  0  0  0  0
  6  1  2  0  0  0  0
  7  4  1  0  0  0  0
  8  2  1  0  0  0  0
  9 16  1  0  0  0  0
 10  9  1  0  0  0  0
 11  3  1  0  0  0  0
 12  6  1  0  0  0  0
 13  7  1  0  0  0  0
 14  7  1  0  0  0  0
 15  4  1  0  0  0  0
 16 14  1  0  0  0  0
 17 13  1  0  0  0  0
 18  2  2  0  0  0  0
 19 10  2  0  0  0  0
 20 15  1  0  0  0  0
 21  5  1  0  0  0  0
 22 10  1  0  0  0  0
 23 21  2  0  0  0  0
 24 11  1  0  0  0  0
 25 12  1  0  0  0  0
 26 23  1  0  0  0  0
 27 25  2  0  0  0  0
 28 24  2  0  0  0  0
 11 12  2  0  0  0  0
 28 27  1  0  0  0  0
 26 15  2  0  0  0  0
  9 17  1  0  0  0  0
M  END
>  <ID> (9124790)
9124790

>  <Supplier> (9124790)
ChemBridge

>  <clogP> (9124790)
2.217000000000000e+000

>  <RB> (9124790)
3

>  <tPSA> (9124790)
6.579000000000002e+001

>  <Hacc> (9124790)
3

>  <Hdon> (9124790)
1

>  <LogSw> (9124790)
-4.816999999999998e+000

>  <Group> (9124790)
2

>  <Core> (9124790)
158

$$$$
6217320
  -ISIS-  03310818232D

 31 33  0  0  0  0  0  0  0  0999 V2000
    5.7417   -4.4542    0.0000 S   0  0  3  0  0  0  0  0  0  0  0  0
    5.7417   -3.6292    0.0000 N   0  0  3  0  0  0  0  0  0  0  0  0
    6.4542   -3.2167    0.0000 C   0  0  0  0  0  0  0  0  0  0  0  0
    7.1667   -3.6292    0.0000 C   0  0  0  0  0  0  0  0  0  0  0  0
    5.0250   -3.2167    0.0000 C   0  0  0  0  0  0  0  0  0  0  0  0
    7.8792   -3.2167    0.0000 N   0  0  0  0  0  0  0  0  0  0  0  0
    6.3250   -5.0375    0.0000 O   0  0  0  0  0  0  0  0  0  0  0  0
    6.5667   -4.4542    0.0000 O   0  0  0  0  0  0  0  0  0  0  0  0
    5.0250   -4.8625    0.0000 C   0  0  0  0  0  0  0  0  0  0  0  0
    4.3125   -3.6417    0.0000 C   0  0  0  0  0  0  0  0  0  0  0  0
    8.5917   -3.6292    0.0000 C   0  0  0  0  0  0  0  0  0  0  0  0
    7.1667   -4.4542    0.0000 O   0  0  0  0  0  0  0  0  0  0  0  0
    9.3000   -3.2167    0.0000 C   0  0  0  0  0  0  0  0  0  0  0  0
    3.5917   -3.2167    0.0000 C   0  0  0  0  0  0  0  0  0  0  0  0
    9.2917   -2.3917    0.0000 O   0  0  0  0  0  0  0  0  0  0  0  0
    5.0292   -2.3875    0.0000 C   0  0  0  0  0  0  0  0  0  0  0  0
    2.8667   -3.6167    0.0000 O   0  0  0  0  0  0  0  0  0  0  0  0
    4.3167   -1.9750    0.0000 C   0  0  0  0  0  0  0  0  0  0  0  0
    8.5875   -4.4542    0.0000 C   0  0  0  0  0  0  0  0  0  0  0  0
    4.3167   -4.4375    0.0000 C   0  0  0  0  0  0  0  0  0  0  0  0
    5.0167   -5.6792    0.0000 C   0  0  0  0  0  0  0  0  0  0  0  0
   10.0167   -3.6292    0.0000 C   0  0  0  0  0  0  0  0  0  0  0  0
    3.5917   -2.3875    0.0000 C   0  0  0  0  0  0  0  0  0  0  0  0
   10.0042   -1.9667    0.0000 C   0  0  0  0  0  0  0  0  0  0  0  0
    2.1625   -3.2042    0.0000 C   0  0  0  0  0  0  0  0  0  0  0  0
    9.9917   -1.1417    0.0000 C   0  0  0  0  0  0  0  0  0  0  0  0
    9.2917   -4.8667    0.0000 C   0  0  0  0  0  0  0  0  0  0  0  0
    3.6000   -4.8417    0.0000 C   0  0  0  0  0  0  0  0  0  0  0  0
    4.3042   -6.0792    0.0000 C   0  0  0  0  0  0  0  0  0  0  0  0
   10.0125   -4.4625    0.0000 C   0  0  0  0  0  0  0  0  0  0  0  0
    3.5917   -5.6667    0.0000 C   0  0  0  0  0  0  0  0  0  0  0  0
  2  1  1  0  0  0  0
  3  2  1  0  0  0  0
  4  3  1  0  0  0  0
  5  2  1  0  0  0  0
  6  4  1  0  0  0  0
  7  1  2  0  0  0  0
  8  1  2  0  0  0  0
  9  1  1  0  0  0  0
 10  5  1  0  0  0  0
 11  6  1  0  0  0  0
 12  4  2  0  0  0  0
 13 11  1  0  0  0  0
 14 10  2  0  0  0  0
 15 13  1  0  0  0  0
 16  5  2  0  0  0  0
 17 14  1  0  0  0  0
 18 16  1  0  0  0  0
 19 11  2  0  0  0  0
 20  9  2  0  0  0  0
 21  9  1  0  0  0  0
 22 13  2  0  0  0  0
 23 18  2  0  0  0  0
 24 15  1  0  0  0  0
 25 17  1  0  0  0  0
 26 24  1  0  0  0  0
 27 19  1  0  0  0  0
 28 20  1  0  0  0  0
 29 21  2  0  0  0  0
 30 27  2  0  0  0  0
 31 29  1  0  0  0  0
 31 28  2  0  0  0  0
 14 23  1  0  0  0  0
 22 30  1  0  0  0  0
M  END
>  <ID> (6217320)
6217320

>  <Supplier> (6217320)
ChemBridge

>  <clogP> (6217320)
3.780000000000000e+000

>  <RB> (6217320)
5

>  <tPSA> (6217320)
8.494000000000000e+001

>  <Hacc> (6217320)
5

>  <Hdon> (6217320)
1

>  <LogSw> (6217320)
-5.639000000000000e+000

>  <Group> (6217320)
2

>  <Core> (6217320)
084

$$$$
6538859
  -ISIS-  03310818242D

 26 28  0  0  0  0  0  0  0  0999 V2000
    0.0542    4.8417    0.0000 C   0  0  0  0  0  0  0  0  0  0  0  0
    1.3542    4.8417    0.0000 N   0  0  0  0  0  0  0  0  0  0  0  0
    0.7042    5.9667    0.0000 N   0  0  0  0  0  0  0  0  0  0  0  0
    0.7042    4.4667    0.0000 C   0  0  0  0  0  0  0  0  0  0  0  0
    0.0542    5.5917    0.0000 C   0  0  0  0  0  0  0  0  0  0  0  0
    1.3542    5.5917    0.0000 C   0  0  0  0  0  0  0  0  0  0  0  0
   -0.5958    4.4667    0.0000 C   0  0  0  0  0  0  0  0  0  0  0  0
    0.0542    2.6083    0.0000 C   0  0  0  0  0  0  0  0  0  0  0  0
    0.7042    0.8833    0.0000 C   0  0  0  0  0  0  0  0  0  0  0  0
    0.7042    3.7333    0.0000 O   0  0  0  0  0  0  0  0  0  0  0  0
   -0.5958    5.9667    0.0000 O   0  0  0  0  0  0  0  0  0  0  0  0
   -0.5958    2.2250    0.0000 C   0  0  0  0  0  0  0  0  0  0  0  0
   -0.5958    3.7333    0.0000 C   0  0  0  0  0  0  0  0  0  0  0  0
    2.0042    5.9667    0.0000 O   0  0  0  0  0  0  0  0  0  0  0  0
   -0.5958    0.8750    0.0000 O   0  0  0  0  0  0  0  0  0  0  0  0
    0.0542    3.3583    0.0000 C   0  0  0  0  0  0  0  0  0  0  0  0
    0.0542    0.5000    0.0000 C   0  0  0  0  0  0  0  0  0  0  0  0
    1.3500    0.5083    0.0000 C   0  0  0  0  0  0  0  0  0  0  0  0
   -1.2458    2.6000    0.0000 C   0  0  0  0  0  0  0  0  0  0  0  0
    0.7042    2.2250    0.0000 Br  0  0  0  0  0  0  0  0  0  0  0  0
   -1.2458    3.3583    0.0000 C   0  0  0  0  0  0  0  0  0  0  0  0
    1.3500   -0.2417    0.0000 F   0  0  0  0  0  0  0  0  0  0  0  0
    0.7042    1.6333    0.0000 C   0  0  0  0  0  0  0  0  0  0  0  0
    2.0000    0.8833    0.0000 C   0  0  0  0  0  0  0  0  0  0  0  0
    1.3500    2.0083    0.0000 C   0  0  0  0  0  0  0  0  0  0  0  0
    2.0000    1.6333    0.0000 C   0  0  0  0  0  0  0  0  0  0  0  0
  2  4  1  0  0  0  0
  3  5  1  0  0  0  0
  4  1  1  0  0  0  0
  5  1  1  0  0  0  0
  6  3  1  0  0  0  0
  7  1  2  0  0  0  0
  8 16  1  0  0  0  0
  9 17  1  0  0  0  0
 10  4  2  0  0  0  0
 11  5  2  0  0  0  0
 12 19  1  0  0  0  0
 13  7  1  0  0  0  0
 14  6  2  0  0  0  0
 15 12  1  0  0  0  0
 16 13  2  0  0  0  0
 17 15  1  0  0  0  0
 18  9  1  0  0  0  0
 19 21  2  0  0  0  0
 20  8  1  0  0  0  0
 21 13  1  0  0  0  0
 22 18  1  0  0  0  0
 23  9  2  0  0  0  0
 24 18  2  0  0  0  0
 25 23  1  0  0  0  0
 26 25  2  0  0  0  0
  2  6  1  0  0  0  0
 12  8  2  0  0  0  0
 24 26  1  0  0  0  0
M  END
>  <ID> (6538859)
6538859

>  <Supplier> (6538859)
ChemBridge

>  <clogP> (6538859)
4.700000000000000e+000

>  <RB> (6538859)
4

>  <tPSA> (6538859)
8.450000000000003e+001

>  <Hacc> (6538859)
4

>  <Hdon> (6538859)
2

>  <LogSw> (6538859)
-6.270000000000001e+000

>  <Group> (6538859)
2

>  <Core> (6538859)
006

$$$$
5248608
  -ISIS-  03310818212D

 29 32  0  0  0  0  0  0  0  0999 V2000
    4.9292   -6.5042    0.0000 C   0  0  0  0  0  0  0  0  0  0  0  0
    4.9292   -7.6875    0.0000 C   0  0  0  0  0  0  0  0  0  0  0  0
    3.8875   -5.8875    0.0000 C   0  0  0  0  0  0  0  0  0  0  0  0
    3.8875   -8.3375    0.0000 C   0  0  0  0  0  0  0  0  0  0  0  0
    2.8542   -6.5042    0.0000 C   0  0  0  0  0  0  0  0  0  0  0  0
    2.8542   -7.6875    0.0000 C   0  0  0  0  0  0  0  0  0  0  0  0
    5.9792   -5.9167    0.0000 C   0  0  3  0  0  0  0  0  0  0  0  0
    3.8875   -4.6500    0.0000 O   0  0  0  0  0  0  0  0  0  0  0  0
    5.9792   -4.7375    0.0000 C   0  0  0  0  0  0  0  0  0  0  0  0
    3.8875   -9.3292    0.0000 O   0  0  0  0  0  0  0  0  0  0  0  0
    6.0042   -2.3167    0.0000 C   0  0  0  0  0  0  0  0  0  0  0  0
    6.0042   -1.1042    0.0000 N   0  0  3  0  0  0  0  0  0  0  0  0
    5.9542   -8.3375    0.0000 O   0  0  0  0  0  0  0  0  0  0  0  0
    7.0167   -6.5375    0.0000 C   0  0  0  0  0  0  0  0  0  0  0  0
    5.0000   -4.0875    0.0000 C   0  0  0  0  0  0  0  0  0  0  0  0
    7.0542   -4.1167    0.0000 C   0  0  0  0  0  0  0  0  0  0  0  0
    5.0000   -2.9042    0.0000 C   0  0  0  0  0  0  0  0  0  0  0  0
    7.0542   -2.9042    0.0000 C   0  0  0  0  0  0  0  0  0  0  0  0
    1.8000   -5.8875    0.0000 C   0  0  0  0  0  0  0  0  0  0  0  0
    1.8000   -8.3375    0.0000 C   0  0  0  0  0  0  0  0  0  0  0  0
    4.9500   -0.5000    0.0000 C   0  0  0  0  0  0  0  0  0  0  0  0
    7.0667   -0.5292    0.0000 C   0  0  0  0  0  0  0  0  0  0  0  0
    7.0167   -7.7500    0.0000 C   0  0  0  0  0  0  0  0  0  0  0  0
    8.0667   -5.9500    0.0000 C   0  0  0  0  0  0  0  0  0  0  0  0
    0.7667   -6.5042    0.0000 C   0  0  0  0  0  0  0  0  0  0  0  0
    0.7667   -7.6875    0.0000 C   0  0  0  0  0  0  0  0  0  0  0  0
    8.0667   -8.3667    0.0000 C   0  0  0  0  0  0  0  0  0  0  0  0
    9.1292   -6.5375    0.0000 C   0  0  0  0  0  0  0  0  0  0  0  0
    9.1292   -7.7500    0.0000 C   0  0  0  0  0  0  0  0  0  0  0  0
  2  1  2  0  0  0  0
  3  1  1  0  0  0  0
  4  2  1  0  0  0  0
  5  3  1  0  0  0  0
  6  5  2  0  0  0  0
  7  1  1  0  0  0  0
  8  3  2  0  0  0  0
  9  7  1  0  0  0  0
 10  4  2  0  0  0  0
 11 18  2  0  0  0  0
 12 11  1  0  0  0  0
 13  2  1  0  0  0  0
 14  7  1  0  0  0  0
 15  9  1  0  0  0  0
 16  9  2  0  0  0  0
 17 15  2  0  0  0  0
 18 16  1  0  0  0  0
 19  5  1  0  0  0  0
 20  6  1  0  0  0  0
 21 12  1  0  0  0  0
 22 12  1  0  0  0  0
 23 14  1  0  0  0  0
 24 14  2  0  0  0  0
 25 19  2  0  0  0  0
 26 25  1  0  0  0  0
 27 23  2  0  0  0  0
 28 24  1  0  0  0  0
 29 28  2  0  0  0  0
  6  4  1  0  0  0  0
 11 17  1  0  0  0  0
 29 27  1  0  0  0  0
 26 20  2  0  0  0  0
M  END
>  <ID> (5248608)
5248608

>  <Supplier> (5248608)
ChemBridge

>  <clogP> (5248608)
5.370000000000000e+000

>  <RB> (5248608)
3

>  <tPSA> (5248608)
5.761000000000000e+001

>  <Hacc> (5248608)
3

>  <Hdon> (5248608)
1

>  <LogSw> (5248608)
-6.581000000000000e+000

>  <Group> (5248608)
2

$$$$
7961424
  -ISIS-  03310818282D

 27 30  0  0  0  0  0  0  0  0999 V2000
    4.0500    3.6458    0.0000 C   0  0  0  0  0  0  0  0  0  0  0  0
    4.4250    2.9958    0.0000 C   0  0  0  0  0  0  0  0  0  0  0  0
    4.4250    4.2792    0.0000 C   0  0  0  0  0  0  0  0  0  0  0  0
    5.1750    2.9958    0.0000 O   0  0  0  0  0  0  0  0  0  0  0  0
    3.3000    3.6458    0.0000 O   0  0  0  0  0  0  0  0  0  0  0  0
    5.1750    4.2792    0.0000 C   0  0  0  0  0  0  0  0  0  0  0  0
    5.5500    3.6458    0.0000 C   0  0  0  0  0  0  0  0  0  0  0  0
    2.9250    4.2792    0.0000 C   0  0  0  0  0  0  0  0  0  0  0  0
    4.0500    2.3458    0.0000 C   0  0  0  0  0  0  0  0  0  0  0  0
    4.0500    4.9375    0.0000 O   0  0  0  0  0  0  0  0  0  0  0  0
    3.3000    4.9375    0.0000 O   0  0  0  0  0  0  0  0  0  0  0  0
    2.1750    4.2792    0.0000 C   0  0  0  0  0  0  0  0  0  0  0  0
    3.3000    2.3458    0.0000 C   0  0  0  0  0  0  0  0  0  0  0  0
    4.4250    1.6958    0.0000 C   0  0  0  0  0  0  0  0  0  0  0  0
    4.0500    1.0458    0.0000 C   0  0  0  0  0  0  0  0  0  0  0  0
    2.9250    1.6958    0.0000 C   0  0  0  0  0  0  0  0  0  0  0  0
    3.3000    1.0458    0.0000 C   0  0  0  0  0  0  0  0  0  0  0  0
    5.5500    4.9375    0.0000 C   0  0  0  0  0  0  0  0  0  0  0  0
    6.3000    3.6458    0.0000 C   0  0  0  0  0  0  0  0  0  0  0  0
    1.8000    4.9375    0.0000 C   0  0  0  0  0  0  0  0  0  0  0  0
    1.8000    3.6458    0.0000 C   0  0  0  0  0  0  0  0  0  0  0  0
    2.9250    0.3958    0.0000 C   0  0  0  0  0  0  0  0  0  0  0  0
    6.3000    4.9375    0.0000 C   0  0  0  0  0  0  0  0  0  0  0  0
    6.6750    4.2792    0.0000 C   0  0  0  0  0  0  0  0  0  0  0  0
    1.0500    4.9375    0.0000 C   0  0  0  0  0  0  0  0  0  0  0  0
    1.0500    3.6458    0.0000 C   0  0  0  0  0  0  0  0  0  0  0  0
    0.6750    4.2792    0.0000 C   0  0  0  0  0  0  0  0  0  0  0  0
  2  1  2  0  0  0  0
  3  1  1  0  0  0  0
  4  2  1  0  0  0  0
  5  1  1  0  0  0  0
  6  3  1  0  0  0  0
  7  6  2  0  0  0  0
  8  5  1  0  0  0  0
  9  2  1  0  0  0  0
 10  3  2  0  0  0  0
 11  8  2  0  0  0  0
 12  8  1  0  0  0  0
 13  9  2  0  0  0  0
 14  9  1  0  0  0  0
 15 14  2  0  0  0  0
 16 13  1  0  0  0  0
 17 15  1  0  0  0  0
 18  6  1  0  0  0  0
 19  7  1  0  0  0  0
 20 12  1  0  0  0  0
 21 12  2  0  0  0  0
 22 17  1  0  0  0  0
 23 18  2  0  0  0  0
 24 23  1  0  0  0  0
 25 20  2  0  0  0  0
 26 21  1  0  0  0  0
 27 26  2  0  0  0  0
  4  7  1  0  0  0  0
 24 19  2  0  0  0  0
 16 17  2  0  0  0  0
 27 25  1  0  0  0  0
M  END
>  <ID> (7961424)
7961424

>  <Supplier> (7961424)
ChemBridge

>  <clogP> (7961424)
5.146999999999999e+000

>  <RB> (7961424)
4

>  <tPSA> (7961424)
5.651000000000000e+001

>  <Hacc> (7961424)
4

>  <Hdon> (7961424)
0

>  <LogSw> (7961424)
-6.193999999999998e+000

>  <Group> (7961424)
1

>  <Core> (7961424)
083

$$$$
6586261
  -ISIS-  03310818242D

 22 24  0  0  0  0  0  0  0  0999 V2000
    2.2292   -1.2375    0.0000 C   0  0  0  0  0  0  0  0  0  0  0  0
    1.4000   -1.7375    0.0000 C   0  0  0  0  0  0  0  0  0  0  0  0
    2.2042   -0.2542    0.0000 C   0  0  0  0  0  0  0  0  0  0  0  0
    0.5500   -1.2667    0.0000 C   0  0  0  0  0  0  0  0  0  0  0  0
    1.4167   -2.7167    0.0000 N   0  3  0  0  0  0  0  0  0  0  0  0
    1.3542    0.2125    0.0000 C   0  0  0  0  0  0  0  0  0  0  0  0
    0.5292   -0.2667    0.0000 C   0  0  0  0  0  0  0  0  0  0  0  0
    3.1792   -1.5167    0.0000 N   0  0  0  0  0  0  0  0  0  0  0  0
    3.1375    0.0500    0.0000 N   0  0  0  0  0  0  0  0  0  0  0  0
   -0.3125   -1.8042    0.0000 N   0  0  0  0  0  0  0  0  0  0  0  0
    3.7167   -0.7042    0.0000 O   0  0  0  0  0  0  0  0  0  0  0  0
   -1.1958   -1.3792    0.0000 C   0  0  0  0  0  0  0  0  0  0  0  0
   -1.2833   -0.3875    0.0000 C   0  0  0  0  0  0  0  0  0  0  0  0
    0.5875   -3.2042    0.0000 O   0  5  0  0  0  0  0  0  0  0  0  0
    2.2667   -3.2000    0.0000 O   0  0  0  0  0  0  0  0  0  0  0  0
   -2.1708    0.0125    0.0000 C   0  0  0  0  0  0  0  0  0  0  0  0
    1.3375    1.1833    0.0000 Cl  0  0  0  0  0  0  0  0  0  0  0  0
   -1.9708   -1.9375    0.0000 C   0  0  0  0  0  0  0  0  0  0  0  0
   -2.8833   -1.5167    0.0000 C   0  0  0  0  0  0  0  0  0  0  0  0
   -0.5000    0.1833    0.0000 C   0  0  0  0  0  0  0  0  0  0  0  0
   -2.9708   -0.5667    0.0000 C   0  0  0  0  0  0  0  0  0  0  0  0
   -2.2500    0.9833    0.0000 C   0  0  0  0  0  0  0  0  0  0  0  0
  2  1  1  0  0  0  0
  3  1  1  0  0  0  0
  4  2  2  0  0  0  0
  5  2  1  0  0  0  0
  6  3  1  0  0  0  0
  7  6  2  0  0  0  0
  8  1  2  0  0  0  0
  9  3  2  0  0  0  0
 10  4  1  0  0  0  0
 11  8  1  0  0  0  0
 12 10  1  0  0  0  0
 13 12  2  0  0  0  0
 14  5  1  0  0  0  0
 15  5  2  0  0  0  0
 16 13  1  0  0  0  0
 17  6  1  0  0  0  0
 18 12  1  0  0  0  0
 19 18  2  0  0  0  0
 20 13  1  0  0  0  0
 21 19  1  0  0  0  0
 22 16  1  0  0  0  0
  9 11  1  0  0  0  0
  7  4  1  0  0  0  0
 21 16  2  0  0  0  0
M  CHG  2   5   1  14  -1
M  END
>  <ID> (6586261)
6586261

>  <Supplier> (6586261)
ChemBridge

>  <clogP> (6586261)
5.850000000000000e+000

>  <RB> (6586261)
2

>  <tPSA> (6586261)
9.409000000000000e+001

>  <Hacc> (6586261)
5

>  <Hdon> (6586261)
1

>  <LogSw> (6586261)
-6.520000000000000e+000

>  <Group> (6586261)
1

>  <Core> (6586261)
371

$$$$
6586265
  -ISIS-  03310818242D

 34 37  0  0  0  0  0  0  0  0999 V2000
    5.2167   -3.2667    0.0000 N   0  0  3  0  0  0  0  0  0  0  0  0
    4.9875   -3.9792    0.0000 C   0  0  0  0  0  0  0  0  0  0  0  0
    5.9667   -3.2667    0.0000 C   0  0  0  0  0  0  0  0  0  0  0  0
    6.2000   -3.9792    0.0000 C   0  0  0  0  0  0  0  0  0  0  0  0
    5.5917   -4.4167    0.0000 S   0  0  0  0  0  0  0  0  0  0  0  0
    6.9125   -4.2042    0.0000 C   0  0  0  0  0  0  0  0  0  0  0  0
    4.2750   -4.2042    0.0000 S   0  0  0  0  0  0  0  0  0  0  0  0
    4.7792   -2.6542    0.0000 C   0  0  0  0  0  0  0  0  0  0  0  0
   10.0667   -6.6167    0.0000 C   0  0  0  0  0  0  0  0  0  0  0  0
    6.6667   -6.1792    0.0000 C   0  0  0  0  0  0  0  0  0  0  0  0
    6.4042   -2.6542    0.0000 O   0  0  0  0  0  0  0  0  0  0  0  0
    7.0667   -4.9417    0.0000 C   0  0  0  0  0  0  0  0  0  0  0  0
    6.5125   -5.4417    0.0000 C   0  0  0  0  0  0  0  0  0  0  0  0
    7.3750   -6.4125    0.0000 C   0  0  0  0  0  0  0  0  0  0  0  0
    9.9167   -5.8792    0.0000 C   0  0  0  0  0  0  0  0  0  0  0  0
   10.7792   -6.8542    0.0000 C   0  0  0  0  0  0  0  0  0  0  0  0
    7.9417   -5.9125    0.0000 C   0  0  0  0  0  0  0  0  0  0  0  0
    7.7792   -5.1750    0.0000 C   0  0  0  0  0  0  0  0  0  0  0  0
    9.5125   -7.1167    0.0000 O   0  0  0  0  0  0  0  0  0  0  0  0
    6.1042   -6.6750    0.0000 O   0  0  0  0  0  0  0  0  0  0  0  0
    7.5250   -7.1417    0.0000 O   0  0  0  0  0  0  0  0  0  0  0  0
   11.1917   -5.6250    0.0000 C   0  0  0  0  0  0  0  0  0  0  0  0
   11.3417   -6.3625    0.0000 C   0  0  0  0  0  0  0  0  0  0  0  0
   10.4875   -5.3792    0.0000 C   0  0  0  0  0  0  0  0  0  0  0  0
    4.0375   -2.7375    0.0000 C   0  0  0  0  0  0  0  0  0  0  0  0
    5.0875   -1.9750    0.0000 C   0  0  0  0  0  0  0  0  0  0  0  0
   10.9375   -7.5917    0.0000 C   0  0  0  0  0  0  0  0  0  0  0  0
    9.2042   -5.6417    0.0000 C   0  0  0  0  0  0  0  0  0  0  0  0
    8.8000   -6.8792    0.0000 C   0  0  0  0  0  0  0  0  0  0  0  0
    8.2375   -7.3792    0.0000 C   0  0  0  0  0  0  0  0  0  0  0  0
    6.2542   -7.4042    0.0000 C   0  0  0  0  0  0  0  0  0  0  0  0
    3.5917   -2.1375    0.0000 C   0  0  0  0  0  0  0  0  0  0  0  0
    4.6417   -1.3667    0.0000 C   0  0  0  0  0  0  0  0  0  0  0  0
    3.9000   -1.4417    0.0000 C   0  0  0  0  0  0  0  0  0  0  0  0
  2  1  1  0  0  0  0
  3  1  1  0  0  0  0
  4  3  1  0  0  0  0
  5  2  1  0  0  0  0
  6  4  2  0  0  0  0
  7  2  2  0  0  0  0
  8  1  1  0  0  0  0
  9 19  1  0  0  0  0
 10 13  2  0  0  0  0
 11  3  2  0  0  0  0
 12  6  1  0  0  0  0
 13 12  1  0  0  0  0
 14 17  2  0  0  0  0
 15  9  1  0  0  0  0
 16  9  2  0  0  0  0
 17 18  1  0  0  0  0
 18 12  2  0  0  0  0
 19 29  1  0  0  0  0
 20 10  1  0  0  0  0
 21 14  1  0  0  0  0
 22 23  2  0  0  0  0
 23 16  1  0  0  0  0
 24 15  2  0  0  0  0
 25  8  1  0  0  0  0
 26  8  2  0  0  0  0
 27 16  1  0  0  0  0
 28 15  1  0  0  0  0
 29 30  1  0  0  0  0
 30 21  1  0  0  0  0
 31 20  1  0  0  0  0
 32 25  2  0  0  0  0
 33 26  1  0  0  0  0
 34 33  2  0  0  0  0
  4  5  1  0  0  0  0
 34 32  1  0  0  0  0
 14 10  1  0  0  0  0
 24 22  1  0  0  0  0
M  END
>  <ID> (6586265)
6586265

>  <Supplier> (6586265)
ChemBridge

>  <clogP> (6586265)
6.440000000000000e+000

>  <RB> (6586265)
7

>  <tPSA> (6586265)
4.800000000000000e+001

>  <Hacc> (6586265)
4

>  <Hdon> (6586265)
0

>  <LogSw> (6586265)
-8.283000000000000e+000

>  <Group> (6586265)
1

>  <Core> (6586265)
001

$$$$
7802389
  -ISIS-  03310818272D

 33 36  0  0  0  0  0  0  0  0999 V2000
    1.8167   -1.5375    0.0000 C   0  0  0  0  0  0  0  0  0  0  0  0
    3.2417   -1.5375    0.0000 C   0  0  0  0  0  0  0  0  0  0  0  0
    1.1042   -1.1250    0.0000 C   0  0  0  0  0  0  0  0  0  0  0  0
    1.8167   -2.3667    0.0000 C   0  0  0  0  0  0  0  0  0  0  0  0
    2.5292   -1.1167    0.0000 C   0  0  3  0  0  0  0  0  0  0  0  0
    3.2417   -2.3667    0.0000 C   0  0  0  0  0  0  0  0  0  0  0  0
    3.9667   -1.1250    0.0000 C   0  0  0  0  0  0  0  0  0  0  0  0
    0.3792   -1.5375    0.0000 C   0  0  3  0  0  0  0  0  0  0  0  0
    2.5292   -2.7792    0.0000 N   0  0  0  0  0  0  0  0  0  0  0  0
    0.3792   -2.3667    0.0000 C   0  0  3  0  0  0  0  0  0  0  0  0
    2.5292    0.3750    0.0000 C   0  0  0  0  0  0  0  0  0  0  0  0
   -0.3333   -1.1167    0.0000 C   0  0  0  0  0  0  0  0  0  0  0  0
    1.1042   -2.7792    0.0000 C   0  0  0  0  0  0  0  0  0  0  0  0
    4.6792   -1.5417    0.0000 O   0  0  0  0  0  0  0  0  0  0  0  0
    1.1042   -0.2917    0.0000 O   0  0  0  0  0  0  0  0  0  0  0  0
    3.9667   -0.2917    0.0000 O   0  0  0  0  0  0  0  0  0  0  0  0
    3.2167    0.7708    0.0000 C   0  0  0  0  0  0  0  0  0  0  0  0
   -0.3333   -0.2917    0.0000 O   0  0  0  0  0  0  0  0  0  0  0  0
   -1.0583   -1.5292    0.0000 O   0  0  0  0  0  0  0  0  0  0  0  0
    3.9667   -2.7792    0.0000 C   0  0  0  0  0  0  0  0  0  0  0  0
    3.9000    0.3708    0.0000 F   0  0  0  0  0  0  0  0  0  0  0  0
    5.4042   -1.1292    0.0000 C   0  0  3  0  0  0  0  0  0  0  0  0
   -0.3333   -2.7792    0.0000 C   0  0  0  0  0  0  0  0  0  0  0  0
    1.8542    0.7625    0.0000 C   0  0  0  0  0  0  0  0  0  0  0  0
    3.2167    1.5583    0.0000 C   0  0  0  0  0  0  0  0  0  0  0  0
   -1.7708   -1.1167    0.0000 C   0  0  0  0  0  0  0  0  0  0  0  0
    5.4042   -0.3042    0.0000 C   0  0  0  0  0  0  0  0  0  0  0  0
    6.1167   -1.5542    0.0000 C   0  0  0  0  0  0  0  0  0  0  0  0
    1.8500    1.5500    0.0000 C   0  0  0  0  0  0  0  0  0  0  0  0
    2.5375    1.9583    0.0000 C   0  0  0  0  0  0  0  0  0  0  0  0
    6.8375   -1.1417    0.0000 C   0  0  0  0  0  0  0  0  0  0  0  0
    6.1292    0.1083    0.0000 C   0  0  0  0  0  0  0  0  0  0  0  0
    6.8417   -0.3167    0.0000 C   0  0  0  0  0  0  0  0  0  0  0  0
  2  5  1  0  0  0  0
  3  1  1  0  0  0  0
  4  1  2  0  0  0  0
  5  1  1  0  0  0  0
  6  2  2  0  0  0  0
  7  2  1  0  0  0  0
  8  3  1  0  0  0  0
  9  4  1  0  0  0  0
 10 13  1  0  0  0  0
 11  5  1  0  0  0  0
 12  8  1  0  0  0  0
 13  4  1  0  0  0  0
 14  7  1  0  0  0  0
 15  3  2  0  0  0  0
 16  7  2  0  0  0  0
 17 11  2  0  0  0  0
 18 12  2  0  0  0  0
 19 12  1  0  0  0  0
 20  6  1  0  0  0  0
 21 17  1  0  0  0  0
 22 14  1  0  0  0  0
 23 10  1  0  0  0  0
 24 11  1  0  0  0  0
 25 17  1  0  0  0  0
 26 19  1  0  0  0  0
 27 22  1  0  0  0  0
 28 22  1  0  0  0  0
 29 24  2  0  0  0  0
 30 29  1  0  0  0  0
 31 28  1  0  0  0  0
 32 27  1  0  0  0  0
 33 31  1  0  0  0  0
  9  6  1  0  0  0  0
  8 10  1  0  0  0  0
 25 30  2  0  0  0  0
 32 33  1  0  0  0  0
M  END
>  <ID> (7802389)
7802389

>  <Supplier> (7802389)
ChemBridge

>  <clogP> (7802389)
5.090000000000000e+000

>  <RB> (7802389)
5

>  <tPSA> (7802389)
8.170000000000000e+001

>  <Hacc> (7802389)
5

>  <Hdon> (7802389)
1

>  <LogSw> (7802389)
-5.859000000000000e+000

>  <Group> (7802389)
1

>  <Core> (7802389)
085

$$$$
5307401
  -ISIS-  03310818212D

 26 29  0  0  0  0  0  0  0  0999 V2000
   -1.6333   -2.7792    0.0000 C   0  0  0  0  0  0  0  0  0  0  0  0
   -1.6333   -2.0292    0.0000 C   0  0  0  0  0  0  0  0  0  0  0  0
   -0.9708   -3.1542    0.0000 N   0  0  0  0  0  0  0  0  0  0  0  0
   -2.9333   -2.0292    0.0000 C   0  0  0  0  0  0  0  0  0  0  0  0
   -2.2833   -3.1542    0.0000 N   0  0  0  0  0  0  0  0  0  0  0  0
   -0.9708   -1.6500    0.0000 N   0  0  0  0  0  0  0  0  0  0  0  0
    0.9667   -7.2792    0.0000 N   0  3  0  0  0  0  0  0  0  0  0  0
   -0.3208   -2.7792    0.0000 C   0  0  0  0  0  0  0  0  0  0  0  0
   -2.9333   -2.7792    0.0000 C   0  0  0  0  0  0  0  0  0  0  0  0
   -0.3208   -2.0292    0.0000 N   0  0  0  0  0  0  0  0  0  0  0  0
    0.9667   -6.5292    0.0000 C   0  0  0  0  0  0  0  0  0  0  0  0
    0.3167   -3.9042    0.0000 N   0  0  0  0  0  0  0  0  0  0  0  0
    0.3167   -7.6542    0.0000 O   0  5  0  0  0  0  0  0  0  0  0  0
   -3.5958   -1.6500    0.0000 C   0  0  0  0  0  0  0  0  0  0  0  0
    1.6167   -7.6542    0.0000 O   0  0  0  0  0  0  0  0  0  0  0  0
    0.3167   -3.1542    0.0000 N   0  0  0  0  0  0  0  0  0  0  0  0
   -3.5958   -3.1542    0.0000 C   0  0  0  0  0  0  0  0  0  0  0  0
    1.6167   -6.1542    0.0000 C   0  0  0  0  0  0  0  0  0  0  0  0
    0.3167   -6.1542    0.0000 C   0  0  0  0  0  0  0  0  0  0  0  0
    0.9667   -4.2792    0.0000 C   0  0  0  0  0  0  0  0  0  0  0  0
   -4.2458   -2.0292    0.0000 C   0  0  0  0  0  0  0  0  0  0  0  0
    0.9667   -5.0292    0.0000 C   0  0  0  0  0  0  0  0  0  0  0  0
   -4.2458   -2.7792    0.0000 C   0  0  0  0  0  0  0  0  0  0  0  0
    1.6167   -5.4042    0.0000 C   0  0  0  0  0  0  0  0  0  0  0  0
    0.3167   -5.4042    0.0000 C   0  0  0  0  0  0  0  0  0  0  0  0
   -4.8958   -1.6500    0.0000 Br  0  0  0  0  0  0  0  0  0  0  0  0
  2  1  1  0  0  0  0
  3  1  2  0  0  0  0
  4  2  1  0  0  0  0
  5  1  1  0  0  0  0
  6  2  2  0  0  0  0
  7 11  1  0  0  0  0
  8  3  1  0  0  0  0
  9  5  1  0  0  0  0
 10  8  2  0  0  0  0
 11 19  1  0  0  0  0
 12 16  1  0  0  0  0
 13  7  1  0  0  0  0
 14  4  1  0  0  0  0
 15  7  2  0  0  0  0
 16  8  1  0  0  0  0
 17  9  1  0  0  0  0
 18 24  1  0  0  0  0
 19 25  2  0  0  0  0
 20 12  2  0  0  0  0
 21 14  2  0  0  0  0
 22 20  1  0  0  0  0
 23 17  2  0  0  0  0
 24 22  2  0  0  0  0
 25 22  1  0  0  0  0
 26 21  1  0  0  0  0
  4  9  2  0  0  0  0
 10  6  1  0  0  0  0
 21 23  1  0  0  0  0
 11 18  2  0  0  0  0
M  CHG  2   7   1  13  -1
M  END
>  <ID> (5307401)
5307401

>  <Supplier> (5307401)
ChemBridge

>  <clogP> (5307401)
4.400000000000000e+000

>  <RB> (5307401)
3

>  <tPSA> (5307401)
1.219900000000000e+002

>  <Hacc> (5307401)
6

>  <Hdon> (5307401)
2

>  <LogSw> (5307401)
-7.462000000000000e+000

>  <Group> (5307401)
1

>  <Core> (5307401)
239

$$$$
6041701
  -ISIS-  03310818232D

 20 21  0  0  0  0  0  0  0  0999 V2000
    0.2500    0.4500    0.0000 C   0  0  0  0  0  0  0  0  0  0  0  0
   -0.3208    1.3833    0.0000 C   0  0  0  0  0  0  0  0  0  0  0  0
    1.3292    0.4708    0.0000 C   0  0  0  0  0  0  0  0  0  0  0  0
    1.9000   -0.4542    0.0000 N   0  0  0  0  0  0  0  0  0  0  0  0
    3.0167   -0.4500    0.0000 C   0  0  0  0  0  0  0  0  0  0  0  0
   -1.4208    1.3500    0.0000 C   0  0  0  0  0  0  0  0  0  0  0  0
    0.1875    2.3458    0.0000 O   0  0  0  0  0  0  0  0  0  0  0  0
    3.5875   -1.3792    0.0000 C   0  0  0  0  0  0  0  0  0  0  0  0
   -1.9958    2.2958    0.0000 C   0  0  0  0  0  0  0  0  0  0  0  0
   -1.9458    0.3958    0.0000 C   0  0  0  0  0  0  0  0  0  0  0  0
   -3.6000    1.2833    0.0000 C   0  0  0  0  0  0  0  0  0  0  0  0
   -3.0833    2.2500    0.0000 C   0  0  0  0  0  0  0  0  0  0  0  0
   -3.0208    0.3500    0.0000 C   0  0  0  0  0  0  0  0  0  0  0  0
   -4.6958    1.2333    0.0000 Cl  0  0  0  0  0  0  0  0  0  0  0  0
    3.0500   -2.3375    0.0000 O   0  0  0  0  0  0  0  0  0  0  0  0
    1.8500    1.4458    0.0000 C   0  0  0  0  0  0  0  0  0  0  0  0
    3.5667    0.5333    0.0000 C   0  0  0  0  0  0  0  0  0  0  0  0
    4.6875   -1.3792    0.0000 C   0  0  0  0  0  0  0  0  0  0  0  0
    4.6792    0.5500    0.0000 C   0  0  0  0  0  0  0  0  0  0  0  0
    5.2375   -0.4000    0.0000 C   0  0  0  0  0  0  0  0  0  0  0  0
  2  1  1  0  0  0  0
  3  1  2  0  0  0  0
  4  3  1  0  0  0  0
  5  4  1  0  0  0  0
  6  2  1  0  0  0  0
  7  2  2  0  0  0  0
  8  5  2  0  0  0  0
  9  6  2  0  0  0  0
 10  6  1  0  0  0  0
 11 13  1  0  0  0  0
 12  9  1  0  0  0  0
 13 10  2  0  0  0  0
 14 11  1  0  0  0  0
 15  8  1  0  0  0  0
 16  3  1  0  0  0  0
 17  5  1  0  0  0  0
 18  8  1  0  0  0  0
 19 17  2  0  0  0  0
 20 19  1  0  0  0  0
 11 12  2  0  0  0  0
 18 20  2  0  0  0  0
M  END
>  <ID> (6041701)
6041701

>  <Supplier> (6041701)
ChemBridge

>  <clogP> (6041701)
3.940000000000000e+000

>  <RB> (6041701)
4

>  <tPSA> (6041701)
4.933000000000001e+001

>  <Hacc> (6041701)
2

>  <Hdon> (6041701)
2

>  <LogSw> (6041701)
-4.663999999999998e+000

>  <Group> (6041701)
1

>  <Core> (6041701)
208

$$$$
7802380
  -ISIS-  03310818272D

 23 25  0  0  0  0  0  0  0  0999 V2000
    5.2500   -2.9917    0.0000 N   0  0  3  0  0  0  0  0  0  0  0  0
    5.1125   -4.3167    0.0000 N   0  0  0  0  0  0  0  0  0  0  0  0
    5.6625   -3.7125    0.0000 C   0  0  0  0  0  0  0  0  0  0  0  0
    4.4417   -3.1667    0.0000 N   0  0  0  0  0  0  0  0  0  0  0  0
    4.3542   -3.9917    0.0000 C   0  0  0  0  0  0  0  0  0  0  0  0
    5.5792   -2.2417    0.0000 C   0  0  0  0  0  0  0  0  0  0  0  0
    6.4792   -3.7917    0.0000 N   0  0  0  0  0  0  0  0  0  0  0  0
    3.6500   -4.4042    0.0000 C   0  0  0  0  0  0  0  0  0  0  0  0
    5.0917   -1.5792    0.0000 O   0  0  0  0  0  0  0  0  0  0  0  0
    2.9292   -3.9917    0.0000 C   0  0  0  0  0  0  0  0  0  0  0  0
    3.6500   -5.2375    0.0000 C   0  0  0  0  0  0  0  0  0  0  0  0
    6.8250   -4.5417    0.0000 C   0  0  0  0  0  0  0  0  0  0  0  0
    2.2167   -5.2375    0.0000 C   0  0  0  0  0  0  0  0  0  0  0  0
    2.9292   -5.6500    0.0000 C   0  0  0  0  0  0  0  0  0  0  0  0
    2.2167   -4.4125    0.0000 C   0  0  0  0  0  0  0  0  0  0  0  0
    1.5042   -5.6417    0.0000 Cl  0  0  0  0  0  0  0  0  0  0  0  0
    7.6417   -4.6292    0.0000 C   0  0  0  0  0  0  0  0  0  0  0  0
    6.4000   -2.1542    0.0000 C   0  0  0  0  0  0  0  0  0  0  0  0
    8.1167   -3.9625    0.0000 C   0  0  0  0  0  0  0  0  0  0  0  0
    7.9792   -5.3792    0.0000 C   0  0  0  0  0  0  0  0  0  0  0  0
    8.8000   -5.4667    0.0000 C   0  0  0  0  0  0  0  0  0  0  0  0
    8.9417   -4.0417    0.0000 C   0  0  0  0  0  0  0  0  0  0  0  0
    9.2792   -4.7917    0.0000 C   0  0  0  0  0  0  0  0  0  0  0  0
  2  3  2  0  0  0  0
  3  1  1  0  0  0  0
  4  1  1  0  0  0  0
  5  4  2  0  0  0  0
  6  1  1  0  0  0  0
  7  3  1  0  0  0  0
  8  5  1  0  0  0  0
  9  6  2  0  0  0  0
 10  8  2  0  0  0  0
 11  8  1  0  0  0  0
 12  7  1  0  0  0  0
 13 14  1  0  0  0  0
 14 11  2  0  0  0  0
 15 10  1  0  0  0  0
 16 13  1  0  0  0  0
 17 12  1  0  0  0  0
 18  6  1  0  0  0  0
 19 17  1  0  0  0  0
 20 17  2  0  0  0  0
 21 20  1  0  0  0  0
 22 19  2  0  0  0  0
 23 21  2  0  0  0  0
  2  5  1  0  0  0  0
 13 15  2  0  0  0  0
 23 22  1  0  0  0  0
M  END
>  <ID> (7802380)
7802380

>  <Supplier> (7802380)
ChemBridge

>  <clogP> (7802380)
4.319999999999999e+000

>  <RB> (7802380)
4

>  <tPSA> (7802380)
5.981000000000002e+001

>  <Hacc> (7802380)
3

>  <Hdon> (7802380)
1

>  <LogSw> (7802380)
-5.272000000000000e+000

>  <Group> (7802380)
2

>  <Core> (7802380)
323

$$$$
7970445
  -ISIS-  03310818282D

 31 34  0  0  0  0  0  0  0  0999 V2000
    6.7625    1.1583    0.0000 S   0  0  3  0  0  0  0  0  0  0  0  0
    4.1625    3.4083    0.0000 C   0  0  0  0  0  0  0  0  0  0  0  0
    3.5167    3.0333    0.0000 N   0  0  3  0  0  0  0  0  0  0  0  0
    2.2167    2.2833    0.0000 N   0  0  3  0  0  0  0  0  0  0  0  0
    6.7625    1.9083    0.0000 N   0  0  0  0  0  0  0  0  0  0  0  0
    1.5667    1.9083    0.0000 C   0  0  0  0  0  0  0  0  0  0  0  0
    6.0167    1.2250    0.0000 O   0  0  0  0  0  0  0  0  0  0  0  0
    6.6292    0.4208    0.0000 O   0  0  0  0  0  0  0  0  0  0  0  0
    7.4875    0.9625    0.0000 C   0  0  0  0  0  0  0  0  0  0  0  0
    4.8125    3.0333    0.0000 C   0  0  0  0  0  0  0  0  0  0  0  0
    3.5167    2.2833    0.0000 C   0  0  0  0  0  0  0  0  0  0  0  0
    2.8667    3.4083    0.0000 C   0  0  0  0  0  0  0  0  0  0  0  0
    2.2167    3.0333    0.0000 C   0  0  0  0  0  0  0  0  0  0  0  0
    2.8667    1.9083    0.0000 C   0  0  0  0  0  0  0  0  0  0  0  0
    4.1625    4.1542    0.0000 O   0  0  0  0  0  0  0  0  0  0  0  0
    0.9167    2.2833    0.0000 C   0  0  0  0  0  0  0  0  0  0  0  0
    6.1125    2.2833    0.0000 C   0  0  0  0  0  0  0  0  0  0  0  0
    5.4625    3.4083    0.0000 C   0  0  0  0  0  0  0  0  0  0  0  0
    4.8125    2.2833    0.0000 C   0  0  0  0  0  0  0  0  0  0  0  0
    0.9167    3.0333    0.0000 F   0  0  0  0  0  0  0  0  0  0  0  0
    5.4625    1.9083    0.0000 C   0  0  0  0  0  0  0  0  0  0  0  0
    6.1125    3.0333    0.0000 C   0  0  0  0  0  0  0  0  0  0  0  0
    1.5667    1.1583    0.0000 C   0  0  0  0  0  0  0  0  0  0  0  0
    7.6792    0.2375    0.0000 C   0  0  0  0  0  0  0  0  0  0  0  0
    8.0167    1.4958    0.0000 C   0  0  0  0  0  0  0  0  0  0  0  0
    0.2667    1.9083    0.0000 C   0  0  0  0  0  0  0  0  0  0  0  0
    0.9167    0.7833    0.0000 C   0  0  0  0  0  0  0  0  0  0  0  0
    8.4042    0.0458    0.0000 C   0  0  0  0  0  0  0  0  0  0  0  0
    8.7417    1.3000    0.0000 C   0  0  0  0  0  0  0  0  0  0  0  0
    0.2667    1.1583    0.0000 C   0  0  0  0  0  0  0  0  0  0  0  0
    8.9375    0.5750    0.0000 C   0  0  0  0  0  0  0  0  0  0  0  0
  2 10  1  0  0  0  0
  3  2  1  0  0  0  0
  4 13  1  0  0  0  0
  5  1  1  0  0  0  0
  6  4  1  0  0  0  0
  7  1  2  0  0  0  0
  8  1  2  0  0  0  0
  9  1  1  0  0  0  0
 10 18  1  0  0  0  0
 11  3  1  0  0  0  0
 12  3  1  0  0  0  0
 13 12  1  0  0  0  0
 14 11  1  0  0  0  0
 15  2  2  0  0  0  0
 16  6  2  0  0  0  0
 17  5  1  0  0  0  0
 18 22  2  0  0  0  0
 19 21  1  0  0  0  0
 20 16  1  0  0  0  0
 21 17  2  0  0  0  0
 22 17  1  0  0  0  0
 23  6  1  0  0  0  0
 24  9  2  0  0  0  0
 25  9  1  0  0  0  0
 26 16  1  0  0  0  0
 27 23  2  0  0  0  0
 28 24  1  0  0  0  0
 29 25  2  0  0  0  0
 30 27  1  0  0  0  0
 31 29  1  0  0  0  0
 31 28  2  0  0  0  0
 10 19  2  0  0  0  0
 14  4  1  0  0  0  0
 26 30  2  0  0  0  0
M  END
>  <ID> (7970445)
7970445

>  <Supplier> (7970445)
ChemBridge

>  <clogP> (7970445)
3.060000000000000e+000

>  <RB> (7970445)
4

>  <tPSA> (7970445)
6.972000000000000e+001

>  <Hacc> (7970445)
3

>  <Hdon> (7970445)
1

>  <LogSw> (7970445)
-5.017000000000000e+000

>  <Group> (7970445)
2

>  <Core> (7970445)
152

$$$$
7962221
  -ISIS-  03310818282D

 27 28  0  0  0  0  0  0  0  0999 V2000
    6.8667    2.3458    0.0000 S   0  0  3  0  0  0  0  0  0  0  0  0
    3.6167    2.7208    0.0000 S   0  0  3  0  0  0  0  0  0  0  0  0
    6.2167    2.7208    0.0000 N   0  0  3  0  0  0  0  0  0  0  0  0
    5.5667    2.3458    0.0000 C   0  0  0  0  0  0  0  0  0  0  0  0
    4.9167    2.7208    0.0000 C   0  0  0  0  0  0  0  0  0  0  0  0
    4.2667    2.3458    0.0000 C   0  0  0  0  0  0  0  0  0  0  0  0
    5.5667    1.5958    0.0000 C   0  0  0  0  0  0  0  0  0  0  0  0
    4.2667    1.5958    0.0000 C   0  0  0  0  0  0  0  0  0  0  0  0
    4.9167    1.2208    0.0000 C   0  0  0  0  0  0  0  0  0  0  0  0
    6.4292    1.7333    0.0000 O   0  0  0  0  0  0  0  0  0  0  0  0
    7.4375    1.8708    0.0000 O   0  0  0  0  0  0  0  0  0  0  0  0
    7.3917    2.8833    0.0000 C   0  0  0  0  0  0  0  0  0  0  0  0
    4.0417    3.3375    0.0000 O   0  0  0  0  0  0  0  0  0  0  0  0
    3.0417    3.2083    0.0000 O   0  0  0  0  0  0  0  0  0  0  0  0
    3.0875    2.1958    0.0000 N   0  0  0  0  0  0  0  0  0  0  0  0
    6.2167    3.4708    0.0000 C   0  0  0  0  0  0  0  0  0  0  0  0
    4.9167    3.4708    0.0000 C   0  0  0  0  0  0  0  0  0  0  0  0
    2.3625    2.3958    0.0000 C   0  0  0  0  0  0  0  0  0  0  0  0
    6.2167    1.2208    0.0000 C   0  0  0  0  0  0  0  0  0  0  0  0
    3.6167    1.2208    0.0000 C   0  0  0  0  0  0  0  0  0  0  0  0
    1.1042    2.0500    0.0000 O   0  0  0  0  0  0  0  0  0  0  0  0
    8.1167    2.6833    0.0000 C   0  0  0  0  0  0  0  0  0  0  0  0
    7.2000    3.6083    0.0000 C   0  0  0  0  0  0  0  0  0  0  0  0
    1.8292    1.8583    0.0000 C   0  0  0  0  0  0  0  0  0  0  0  0
    7.7292    4.1292    0.0000 C   0  0  0  0  0  0  0  0  0  0  0  0
    8.6500    3.2125    0.0000 C   0  0  0  0  0  0  0  0  0  0  0  0
    8.4542    3.9375    0.0000 C   0  0  0  0  0  0  0  0  0  0  0  0
  2  6  1  0  0  0  0
  3  1  1  0  0  0  0
  4  3  1  0  0  0  0
  5  4  1  0  0  0  0
  6  5  2  0  0  0  0
  7  4  2  0  0  0  0
  8  9  2  0  0  0  0
  9  7  1  0  0  0  0
 10  1  2  0  0  0  0
 11  1  2  0  0  0  0
 12  1  1  0  0  0  0
 13  2  2  0  0  0  0
 14  2  2  0  0  0  0
 15  2  1  0  0  0  0
 16  3  1  0  0  0  0
 17  5  1  0  0  0  0
 18 15  1  0  0  0  0
 19  7  1  0  0  0  0
 20  8  1  0  0  0  0
 21 24  1  0  0  0  0
 22 12  1  0  0  0  0
 23 12  2  0  0  0  0
 24 18  1  0  0  0  0
 25 23  1  0  0  0  0
 26 22  2  0  0  0  0
 27 25  2  0  0  0  0
 26 27  1  0  0  0  0
  6  8  1  0  0  0  0
M  END
>  <ID> (7962221)
7962221

>  <Supplier> (7962221)
ChemBridge

>  <clogP> (7962221)
2.029000000000000e+000

>  <RB> (7962221)
5

>  <tPSA> (7962221)
1.037800000000000e+002

>  <Hacc> (7962221)
6

>  <Hdon> (7962221)
2

>  <LogSw> (7962221)
-3.940000000000000e+000

>  <Group> (7962221)
2

>  <Core> (7962221)
516

$$$$
5889805
  -ISIS-  03310818232D

 24 26  0  0  0  0  0  0  0  0999 V2000
    4.8667   -3.4375    0.0000 N   0  0  3  0  0  0  0  0  0  0  0  0
    6.1667   -2.6875    0.0000 N   0  0  3  0  0  0  0  0  0  0  0  0
    7.9625   -2.9625    0.0000 C   0  0  0  0  0  0  0  0  0  0  0  0
    6.8167   -2.3125    0.0000 N   0  0  0  0  0  0  0  0  0  0  0  0
    4.2167   -3.8125    0.0000 C   0  0  0  0  0  0  0  0  0  0  0  0
    7.5875   -2.3125    0.0000 C   0  0  0  0  0  0  0  0  0  0  0  0
    8.7167   -2.9667    0.0000 C   0  0  0  0  0  0  0  0  0  0  0  0
    4.8667   -2.6875    0.0000 C   0  0  0  0  0  0  0  0  0  0  0  0
    5.5167   -3.8125    0.0000 C   0  0  0  0  0  0  0  0  0  0  0  0
    6.1667   -3.4375    0.0000 C   0  0  0  0  0  0  0  0  0  0  0  0
    5.5167   -2.3125    0.0000 C   0  0  0  0  0  0  0  0  0  0  0  0
    7.5875   -3.6125    0.0000 C   0  0  0  0  0  0  0  0  0  0  0  0
    3.5667   -3.4292    0.0000 C   0  0  0  0  0  0  0  0  0  0  0  0
    9.0875   -3.6167    0.0000 C   0  0  0  0  0  0  0  0  0  0  0  0
    7.9625   -4.2667    0.0000 C   0  0  0  0  0  0  0  0  0  0  0  0
    8.7125   -4.2667    0.0000 C   0  0  0  0  0  0  0  0  0  0  0  0
    7.5875   -4.9125    0.0000 Br  0  0  0  0  0  0  0  0  0  0  0  0
    9.0917   -2.3167    0.0000 O   0  0  0  0  0  0  0  0  0  0  0  0
    3.5750   -2.6792    0.0000 O   0  0  0  0  0  0  0  0  0  0  0  0
    4.2167   -4.5625    0.0000 C   0  0  0  0  0  0  0  0  0  0  0  0
    2.9250   -3.8042    0.0000 C   0  0  0  0  0  0  0  0  0  0  0  0
    2.9250   -2.3042    0.0000 C   0  0  0  0  0  0  0  0  0  0  0  0
    3.5667   -4.9292    0.0000 C   0  0  0  0  0  0  0  0  0  0  0  0
    2.9167   -4.5542    0.0000 C   0  0  0  0  0  0  0  0  0  0  0  0
  2 10  1  0  0  0  0
  3  6  1  0  0  0  0
  4  2  1  0  0  0  0
  5  1  1  0  0  0  0
  6  4  2  0  0  0  0
  7  3  1  0  0  0  0
  8  1  1  0  0  0  0
  9  1  1  0  0  0  0
 10  9  1  0  0  0  0
 11  8  1  0  0  0  0
 12  3  2  0  0  0  0
 13  5  1  0  0  0  0
 14  7  2  0  0  0  0
 15 12  1  0  0  0  0
 16 15  2  0  0  0  0
 17 15  1  0  0  0  0
 18  7  1  0  0  0  0
 19 13  1  0  0  0  0
 20  5  2  0  0  0  0
 21 13  2  0  0  0  0
 22 19  1  0  0  0  0
 23 20  1  0  0  0  0
 24 23  2  0  0  0  0
  2 11  1  0  0  0  0
 21 24  1  0  0  0  0
 14 16  1  0  0  0  0
M  END
>  <ID> (5889805)
5889805

>  <Supplier> (5889805)
ChemBridge

>  <clogP> (5889805)
3.570000000000000e+000

>  <RB> (5889805)
3

>  <tPSA> (5889805)
4.830000000000000e+001

>  <Hacc> (5889805)
3

>  <Hdon> (5889805)
1

>  <LogSw> (5889805)
-4.513999999999999e+000

>  <Group> (5889805)
2

>  <Core> (5889805)
459

$$$$
6049133
  -ISIS-  03310818232D

 24 26  0  0  0  0  0  0  0  0999 V2000
    0.4000    1.1208    0.0000 C   0  0  0  0  0  0  0  0  0  0  0  0
    0.4000    0.1833    0.0000 C   0  0  0  0  0  0  0  0  0  0  0  0
    2.8375   -0.3000    0.0000 C   0  0  0  0  0  0  0  0  0  0  0  0
    2.0542    0.1833    0.0000 N   0  0  0  0  0  0  0  0  0  0  0  0
    1.2292   -0.3000    0.0000 C   0  0  0  0  0  0  0  0  0  0  0  0
    3.7167    0.0125    0.0000 C   0  0  0  0  0  0  0  0  0  0  0  0
   -0.4125    1.5708    0.0000 N   0  0  0  0  0  0  0  0  0  0  0  0
    4.5042   -0.5000    0.0000 S   0  0  0  0  0  0  0  0  0  0  0  0
    1.2292    1.5708    0.0000 O   0  0  0  0  0  0  0  0  0  0  0  0
    3.9375    0.8958    0.0000 C   0  0  0  0  0  0  0  0  0  0  0  0
    2.8375   -1.0542    0.0000 O   0  0  0  0  0  0  0  0  0  0  0  0
    5.2375    0.0958    0.0000 C   0  0  0  0  0  0  0  0  0  0  0  0
    4.9000    0.9500    0.0000 C   0  0  0  0  0  0  0  0  0  0  0  0
   -1.2000    1.1000    0.0000 C   0  0  0  0  0  0  0  0  0  0  0  0
   -2.8000    0.1000    0.0000 C   0  0  0  0  0  0  0  0  0  0  0  0
   -3.5833   -0.3875    0.0000 Br  0  0  0  0  0  0  0  0  0  0  0  0
   -0.4125   -0.3000    0.0000 C   0  0  0  0  0  0  0  0  0  0  0  0
   -2.0458    1.5458    0.0000 C   0  0  0  0  0  0  0  0  0  0  0  0
   -1.1833    0.1833    0.0000 C   0  0  0  0  0  0  0  0  0  0  0  0
   -2.8333    1.0458    0.0000 C   0  0  0  0  0  0  0  0  0  0  0  0
   -1.9708   -0.3292    0.0000 C   0  0  0  0  0  0  0  0  0  0  0  0
    1.2292   -1.2375    0.0000 C   0  0  0  0  0  0  0  0  0  0  0  0
   -0.4125   -1.2375    0.0000 C   0  0  0  0  0  0  0  0  0  0  0  0
    0.4000   -1.7000    0.0000 C   0  0  0  0  0  0  0  0  0  0  0  0
  2  1  1  0  0  0  0
  3  4  1  0  0  0  0
  4  5  1  0  0  0  0
  5  2  1  0  0  0  0
  6  3  1  0  0  0  0
  7  1  1  0  0  0  0
  8  6  1  0  0  0  0
  9  1  2  0  0  0  0
 10  6  2  0  0  0  0
 11  3  2  0  0  0  0
 12  8  1  0  0  0  0
 13 10  1  0  0  0  0
 14  7  1  0  0  0  0
 15 21  1  0  0  0  0
 16 15  1  0  0  0  0
 17  2  2  0  0  0  0
 18 14  2  0  0  0  0
 19 14  1  0  0  0  0
 20 18  1  0  0  0  0
 21 19  2  0  0  0  0
 22  5  2  0  0  0  0
 23 17  1  0  0  0  0
 24 23  2  0  0  0  0
 15 20  2  0  0  0  0
 22 24  1  0  0  0  0
 13 12  2  0  0  0  0
M  END
>  <ID> (6049133)
6049133

>  <Supplier> (6049133)
ChemBridge

>  <clogP> (6049133)
4.609999999999999e+000

>  <RB> (6049133)
4

>  <tPSA> (6049133)
5.820000000000000e+001

>  <Hacc> (6049133)
2

>  <Hdon> (6049133)
2

>  <LogSw> (6049133)
-6.061999999999999e+000

>  <Group> (6049133)
2

>  <Core> (6049133)
141

$$$$
5825005
  -ISIS-  03310818222D

 30 33  0  0  0  0  0  0  0  0999 V2000
    0.5042    0.1208    0.0000 C   0  0  0  0  0  0  0  0  0  0  0  0
    0.5042    0.6625    0.0000 N   0  0  3  0  0  0  0  0  0  0  0  0
    0.9667    0.9208    0.0000 C   0  0  0  0  0  0  0  0  0  0  0  0
    0.0042   -0.0292    0.0000 C   0  0  0  0  0  0  0  0  0  0  0  0
   -0.2958    0.3833    0.0000 C   0  0  0  0  0  0  0  0  0  0  0  0
    0.0042    0.8208    0.0000 N   0  0  0  0  0  0  0  0  0  0  0  0
    0.9667   -0.1375    0.0000 N   0  0  0  0  0  0  0  0  0  0  0  0
    1.4292    0.6625    0.0000 C   0  0  0  0  0  0  0  0  0  0  0  0
    1.4292    0.1208    0.0000 C   0  0  0  0  0  0  0  0  0  0  0  0
    0.9667    1.4458    0.0000 C   0  0  3  0  0  0  0  0  0  0  0  0
   -0.8333    0.3833    0.0000 C   0  0  0  0  0  0  0  0  0  0  0  0
   -1.0958   -0.0792    0.0000 N   0  0  0  0  0  0  0  0  0  0  0  0
    1.8667   -0.1375    0.0000 C   0  0  0  0  0  0  0  0  0  0  0  0
   -0.1708   -0.5542    0.0000 Cl  0  0  0  0  0  0  0  0  0  0  0  0
   -1.0958    0.8458    0.0000 O   0  0  0  0  0  0  0  0  0  0  0  0
    1.5042    1.4458    0.0000 F   0  0  0  0  0  0  0  0  0  0  0  0
    0.4500    1.4458    0.0000 F   0  0  0  0  0  0  0  0  0  0  0  0
    0.9667    1.9833    0.0000 F   0  0  0  0  0  0  0  0  0  0  0  0
   -1.6625   -1.0292    0.0000 O   0  0  0  0  0  0  0  0  0  0  0  0
    1.8667   -0.6542    0.0000 C   0  0  0  0  0  0  0  0  0  0  0  0
    2.3292    0.1208    0.0000 C   0  0  0  0  0  0  0  0  0  0  0  0
   -1.6125   -0.0792    0.0000 C   0  0  0  0  0  0  0  0  0  0  0  0
   -1.8708   -0.5292    0.0000 C   0  0  3  0  0  0  0  0  0  0  0  0
    2.7875   -0.1375    0.0000 C   0  0  0  0  0  0  0  0  0  0  0  0
    2.3042   -0.9167    0.0000 C   0  0  0  0  0  0  0  0  0  0  0  0
    2.7875   -0.6542    0.0000 C   0  0  0  0  0  0  0  0  0  0  0  0
   -2.0625   -1.3667    0.0000 C   0  0  0  0  0  0  0  0  0  0  0  0
    3.2500   -0.9042    0.0000 C   0  0  0  0  0  0  0  0  0  0  0  0
   -2.4000   -0.5667    0.0000 C   0  0  0  0  0  0  0  0  0  0  0  0
   -2.5125   -1.1042    0.0000 C   0  0  0  0  0  0  0  0  0  0  0  0
  2  1  1  0  0  0  0
  3  2  1  0  0  0  0
  4  1  2  0  0  0  0
  5  4  1  0  0  0  0
  6  2  1  0  0  0  0
  7  1  1  0  0  0  0
  8  9  1  0  0  0  0
  9  7  2  0  0  0  0
 10  3  1  0  0  0  0
 11  5  1  0  0  0  0
 12 11  1  0  0  0  0
 13  9  1  0  0  0  0
 14  4  1  0  0  0  0
 15 11  2  0  0  0  0
 16 10  1  0  0  0  0
 17 10  1  0  0  0  0
 18 10  1  0  0  0  0
 19 23  1  0  0  0  0
 20 13  1  0  0  0  0
 21 13  2  0  0  0  0
 22 12  1  0  0  0  0
 23 22  1  0  0  0  0
 24 21  1  0  0  0  0
 25 20  2  0  0  0  0
 26 24  2  0  0  0  0
 27 19  1  0  0  0  0
 28 26  1  0  0  0  0
 29 23  1  0  0  0  0
 30 29  1  0  0  0  0
  6  5  2  0  0  0  0
  8  3  2  0  0  0  0
 26 25  1  0  0  0  0
 30 27  1  0  0  0  0
M  END
>  <ID> (5825005)
5825005

>  <Supplier> (5825005)
ChemBridge

>  <clogP> (5825005)
4.710000000000000e+000

>  <RB> (5825005)
4

>  <tPSA> (5825005)
6.852000000000000e+001

>  <Hacc> (5825005)
5

>  <Hdon> (5825005)
1

>  <LogSw> (5825005)
-6.421000000000000e+000

>  <Group> (5825005)
3

>  <Core> (5825005)
054

$$$$
5701088
  -ISIS-  03310818222D

 23 25  0  0  0  0  0  0  0  0999 V2000
   -0.5625    1.0708    0.0000 C   0  0  0  0  0  0  0  0  0  0  0  0
    3.9042    1.2458    0.0000 C   0  0  0  0  0  0  0  0  0  0  0  0
   -2.9458   -2.8875    0.0000 C   0  0  0  0  0  0  0  0  0  0  0  0
    4.7542    5.6042    0.0000 N   0  0  0  0  0  0  0  0  0  0  0  0
   -7.3792   -2.8875    0.0000 N   0  0  0  0  0  0  0  0  0  0  0  0
    6.7375   -2.0375    0.0000 C   0  0  0  0  0  0  0  0  0  0  0  0
    0.9542    7.8167    0.0000 O   0  0  0  0  0  0  0  0  0  0  0  0
   -2.2125    4.8667    0.0000 C   0  0  0  0  0  0  0  0  0  0  0  0
   -9.5000    0.8833    0.0000 C   0  0  0  0  0  0  0  0  0  0  0  0
  -13.8667    0.8833    0.0000 N   0  0  0  0  0  0  0  0  0  0  0  0
   -0.8500   -6.8000    0.0000 O   0  0  0  0  0  0  0  0  0  0  0  0
   11.0500   -1.3000    0.0000 C   0  0  0  0  0  0  0  0  0  0  0  0
   -7.3792    4.6542    0.0000 C   0  0  0  0  0  0  0  0  0  0  0  0
   12.5167    2.7708    0.0000 Cl  0  0  0  0  0  0  0  0  0  0  0  0
   -2.1333    4.5292    0.0000 Cl  0  0  0  0  0  0  0  0  0  0  0  0
    5.4375   -6.2875    0.0000 C   0  0  0  0  0  0  0  0  0  0  0  0
   -6.5042    5.9500    0.0000 C   0  0  0  0  0  0  0  0  0  0  0  0
  -16.0000    4.6542    0.0000 C   0  0  0  0  0  0  0  0  0  0  0  0
   13.9375   -4.4667    0.0000 C   0  0  0  0  0  0  0  0  0  0  0  0
   -9.5000    8.5500    0.0000 C   0  0  0  0  0  0  0  0  0  0  0  0
    8.2667   -9.5167    0.0000 C   0  0  0  0  0  0  0  0  0  0  0  0
  -13.8667    8.5500    0.0000 C   0  0  0  0  0  0  0  0  0  0  0  0
   12.6292   -8.6667    0.0000 C   0  0  0  0  0  0  0  0  0  0  0  0
  2  1  1  0  0  0  0
  3  1  1  0  0  0  0
  4  2  2  0  0  0  0
  5  3  1  0  0  0  0
  6  2  1  0  0  0  0
  7  8  1  0  0  0  0
  8  1  2  0  0  0  0
  9  5  1  0  0  0  0
 10  9  2  0  0  0  0
 11  3  2  0  0  0  0
 12  6  1  0  0  0  0
 13  9  1  0  0  0  0
 14 12  1  0  0  0  0
 15 13  1  0  0  0  0
 16  6  2  0  0  0  0
 17  8  1  0  0  0  0
 18 10  1  0  0  0  0
 19 12  2  0  0  0  0
 20 13  2  0  0  0  0
 21 16  1  0  0  0  0
 22 20  1  0  0  0  0
 23 21  2  0  0  0  0
  7  4  1  0  0  0  0
 19 23  1  0  0  0  0
 18 22  2  0  0  0  0
M  END
>  <ID> (5701088)
5701088

>  <Supplier> (5701088)
ChemBridge

>  <clogP> (5701088)
2.080000000000000e+000

>  <RB> (5701088)
3

>  <tPSA> (5701088)
6.802000000000000e+001

>  <Hacc> (5701088)
4

>  <Hdon> (5701088)
1

>  <LogSw> (5701088)
-3.515000000000000e+000

>  <Group> (5701088)
2

>  <Core> (5701088)
213

$$$$
5825000
  -ISIS-  03310818222D

 30 34  0  0  0  0  0  0  0  0999 V2000
   -0.6625    0.7958    0.0000 N   0  0  3  0  0  0  0  0  0  0  0  0
   -1.3000    1.1708    0.0000 C   0  0  0  0  0  0  0  0  0  0  0  0
   -0.6625    0.0500    0.0000 C   0  0  0  0  0  0  0  0  0  0  0  0
   -1.9458    0.7958    0.0000 C   0  0  0  0  0  0  0  0  0  0  0  0
    0.0542    1.0333    0.0000 N   0  0  0  0  0  0  0  0  0  0  0  0
   -1.9458    0.0500    0.0000 C   0  0  0  0  0  0  0  0  0  0  0  0
   -1.3000   -0.3292    0.0000 N   0  0  0  0  0  0  0  0  0  0  0  0
    0.4792    0.4333    0.0000 C   0  0  0  0  0  0  0  0  0  0  0  0
    0.0542   -0.1875    0.0000 C   0  0  0  0  0  0  0  0  0  0  0  0
   -1.3000    1.9125    0.0000 C   0  0  3  0  0  0  0  0  0  0  0  0
    1.2375    0.4333    0.0000 C   0  0  0  0  0  0  0  0  0  0  0  0
   -2.5833   -0.3292    0.0000 C   0  0  0  0  0  0  0  0  0  0  0  0
   -2.5833    1.1708    0.0000 C   0  0  0  0  0  0  0  0  0  0  0  0
    1.6000   -0.2292    0.0000 N   0  0  0  0  0  0  0  0  0  0  0  0
    3.4667    0.4708    0.0000 S   0  0  0  0  0  0  0  0  0  0  0  0
    2.7292    0.4125    0.0000 C   0  0  0  0  0  0  0  0  0  0  0  0
   -3.2208    0.0500    0.0000 C   0  0  0  0  0  0  0  0  0  0  0  0
    3.6375    1.2333    0.0000 C   0  0  0  0  0  0  0  0  0  0  0  0
    1.6000    1.0708    0.0000 O   0  0  0  0  0  0  0  0  0  0  0  0
   -3.2208    0.7958    0.0000 C   0  0  0  0  0  0  0  0  0  0  0  0
    2.4417    1.1208    0.0000 C   0  0  0  0  0  0  0  0  0  0  0  0
    2.9875    1.5958    0.0000 C   0  0  0  0  0  0  0  0  0  0  0  0
   -0.5458    1.9125    0.0000 F   0  0  0  0  0  0  0  0  0  0  0  0
   -2.0458    1.9125    0.0000 F   0  0  0  0  0  0  0  0  0  0  0  0
   -1.3000    2.6708    0.0000 F   0  0  0  0  0  0  0  0  0  0  0  0
    2.3542   -0.2292    0.0000 C   0  0  0  0  0  0  0  0  0  0  0  0
   -2.5833   -1.0875    0.0000 C   0  0  0  0  0  0  0  0  0  0  0  0
   -3.8625   -0.3292    0.0000 C   0  0  0  0  0  0  0  0  0  0  0  0
   -3.2208   -1.4500    0.0000 C   0  0  0  0  0  0  0  0  0  0  0  0
   -3.8625   -1.0875    0.0000 C   0  0  0  0  0  0  0  0  0  0  0  0
  2  1  1  0  0  0  0
  3  1  1  0  0  0  0
  4  2  2  0  0  0  0
  5  1  1  0  0  0  0
  6  7  2  0  0  0  0
  7  3  1  0  0  0  0
  8  5  2  0  0  0  0
  9  3  2  0  0  0  0
 10  2  1  0  0  0  0
 11  8  1  0  0  0  0
 12  6  1  0  0  0  0
 13  4  1  0  0  0  0
 14 11  1  0  0  0  0
 15 16  1  0  0  0  0
 16 26  1  0  0  0  0
 17 12  1  0  0  0  0
 18 15  1  0  0  0  0
 19 11  2  0  0  0  0
 20 13  1  0  0  0  0
 21 16  2  0  0  0  0
 22 21  1  0  0  0  0
 23 10  1  0  0  0  0
 24 10  1  0  0  0  0
 25 10  1  0  0  0  0
 26 14  1  0  0  0  0
 27 12  2  0  0  0  0
 28 17  2  0  0  0  0
 29 27  1  0  0  0  0
 30 29  2  0  0  0  0
  8  9  1  0  0  0  0
  6  4  1  0  0  0  0
 17 20  1  0  0  0  0
 28 30  1  0  0  0  0
 22 18  2  0  0  0  0
M  END
>  <ID> (5825000)
5825000

>  <Supplier> (5825000)
ChemBridge

>  <clogP> (5825000)
5.760000000000000e+000

>  <RB> (5825000)
3

>  <tPSA> (5825000)
5.929000000000001e+001

>  <Hacc> (5825000)
4

>  <Hdon> (5825000)
1

>  <LogSw> (5825000)
-8.352000000000004e+000

>  <Group> (5825000)
3

>  <Core> (5825000)
054

$$$$
5701086
  -ISIS-  03310818222D

 30 33  0  0  0  0  0  0  0  0999 V2000
  -12.7792    7.0667    0.0000 N   0  3  0  0  0  0  0  0  0  0  0  0
   -3.2208    6.9792    0.0000 C   0  0  0  0  0  0  0  0  0  0  0  0
   -1.5708    4.2042    0.0000 C   0  0  0  0  0  0  0  0  0  0  0  0
  -11.1875    9.8167    0.0000 C   0  0  0  0  0  0  0  0  0  0  0  0
    1.5667   -1.2792    0.0000 N   0  0  0  0  0  0  0  0  0  0  0  0
   -6.4375    6.9792    0.0000 N   0  0  0  0  0  0  0  0  0  0  0  0
   -1.5708   -1.3542    0.0000 C   0  0  0  0  0  0  0  0  0  0  0  0
   -3.1833    1.4458    0.0000 C   0  0  0  0  0  0  0  0  0  0  0  0
   -8.0000    9.8167    0.0000 C   0  0  0  0  0  0  0  0  0  0  0  0
    1.5667    4.2042    0.0000 C   0  0  0  0  0  0  0  0  0  0  0  0
    3.1375    1.4458    0.0000 C   0  0  0  0  0  0  0  0  0  0  0  0
  -16.0000    6.8000    0.0000 O   0  5  0  0  0  0  0  0  0  0  0  0
  -11.3792    4.2000    0.0000 O   0  0  0  0  0  0  0  0  0  0  0  0
   -3.2208   -4.0375    0.0000 C   0  0  0  0  0  0  0  0  0  0  0  0
   -1.6500    9.7875    0.0000 O   0  0  0  0  0  0  0  0  0  0  0  0
   -6.4375   -4.0375    0.0000 C   0  0  0  0  0  0  0  0  0  0  0  0
   -1.6500   -6.8042    0.0000 C   0  0  0  0  0  0  0  0  0  0  0  0
   -3.2208   -9.6167    0.0000 C   0  0  0  0  0  0  0  0  0  0  0  0
   -8.0042   -6.7667    0.0000 C   0  0  0  0  0  0  0  0  0  0  0  0
   -6.4375   -9.5375    0.0000 C   0  0  0  0  0  0  0  0  0  0  0  0
  -12.7500   12.6000    0.0000 C   0  0  0  0  0  0  0  0  0  0  0  0
   -6.3792   12.6000    0.0000 C   0  0  0  0  0  0  0  0  0  0  0  0
    3.1375    6.9792    0.0000 C   0  0  0  0  0  0  0  0  0  0  0  0
    6.3542    1.4458    0.0000 C   0  0  0  0  0  0  0  0  0  0  0  0
   -8.0875  -12.2292    0.0000 C   0  0  0  0  0  0  0  0  0  0  0  0
  -11.1875   15.3792    0.0000 C   0  0  0  0  0  0  0  0  0  0  0  0
   -7.9375   15.3792    0.0000 C   0  0  0  0  0  0  0  0  0  0  0  0
    6.3542    6.9792    0.0000 C   0  0  0  0  0  0  0  0  0  0  0  0
  -11.2375  -12.1875    0.0000 C   0  0  0  0  0  0  0  0  0  0  0  0
    7.9292    4.2042    0.0000 C   0  0  0  0  0  0  0  0  0  0  0  0
  2  6  1  0  0  0  0
  3  2  1  0  0  0  0
  4  1  1  0  0  0  0
  5 11  2  0  0  0  0
  6  9  1  0  0  0  0
  7  8  2  0  0  0  0
  8  3  1  0  0  0  0
  9  4  1  0  0  0  0
 10  3  2  0  0  0  0
 11 10  1  0  0  0  0
 12  1  1  0  0  0  0
 13  1  2  0  0  0  0
 14  7  1  0  0  0  0
 15  2  2  0  0  0  0
 16 14  1  0  0  0  0
 17 14  2  0  0  0  0
 18 17  1  0  0  0  0
 19 16  2  0  0  0  0
 20 18  2  0  0  0  0
 21  4  2  0  0  0  0
 22  9  2  0  0  0  0
 23 10  1  0  0  0  0
 24 11  1  0  0  0  0
 25 20  1  0  0  0  0
 26 21  1  0  0  0  0
 27 26  2  0  0  0  0
 28 23  2  0  0  0  0
 29 25  1  0  0  0  0
 30 28  1  0  0  0  0
 22 27  1  0  0  0  0
  7  5  1  0  0  0  0
 30 24  2  0  0  0  0
 19 20  1  0  0  0  0
M  CHG  2   1   1  12  -1
M  END
>  <ID> (5701086)
5701086

>  <Supplier> (5701086)
ChemBridge

>  <clogP> (5701086)
5.850000000000000e+000

>  <RB> (5701086)
3

>  <tPSA> (5701086)
8.513000000000000e+001

>  <Hacc> (5701086)
4

>  <Hdon> (5701086)
1

>  <LogSw> (5701086)
-7.483000000000001e+000

>  <Group> (5701086)
1

>  <Core> (5701086)
120

$$$$
7816048
  -ISIS-  03310818272D

 25 28  0  0  0  0  0  0  0  0999 V2000
   -8.7917    2.9875    0.0000 C   0  0  0  0  0  0  0  0  0  0  0  0
   -6.9167   -0.2792    0.0000 C   0  0  0  0  0  0  0  0  0  0  0  0
   -6.9167    6.1667    0.0000 C   0  0  0  0  0  0  0  0  0  0  0  0
   -3.1708   -0.3375    0.0000 C   0  0  0  0  0  0  0  0  0  0  0  0
  -12.4792    2.3958    0.0000 N   0  0  0  0  0  0  0  0  0  0  0  0
   -9.4667   -3.1500    0.0000 N   0  0  0  0  0  0  0  0  0  0  0  0
   -3.1458    6.1917    0.0000 C   0  0  0  0  0  0  0  0  0  0  0  0
  -12.8792   -1.3000    0.0000 O   0  0  0  0  0  0  0  0  0  0  0  0
   -8.7042    9.4042    0.0000 N   0  0  3  0  0  0  0  0  0  0  0  0
    2.4375   -3.5417    0.0000 C   0  0  0  0  0  0  0  0  0  0  0  0
   -1.3500    2.8458    0.0000 C   0  0  0  0  0  0  0  0  0  0  0  0
   -1.3208   -3.5417    0.0000 N   0  0  0  0  0  0  0  0  0  0  0  0
    9.9875   -9.9917    0.0000 C   0  0  0  0  0  0  0  0  0  0  0  0
    4.2667   -0.2417    0.0000 S   0  0  0  0  0  0  0  0  0  0  0  0
    4.2917   -6.7417    0.0000 N   0  0  0  0  0  0  0  0  0  0  0  0
   13.6542  -10.5167    0.0000 O   0  0  0  0  0  0  0  0  0  0  0  0
    8.3542  -13.4500    0.0000 C   0  0  0  0  0  0  0  0  0  0  0  0
   14.3875  -14.2042    0.0000 C   0  0  0  0  0  0  0  0  0  0  0  0
   11.1375  -16.0000    0.0000 C   0  0  0  0  0  0  0  0  0  0  0  0
  -12.5042   16.0000    0.0000 O   0  0  0  0  0  0  0  0  0  0  0  0
    8.0625   -6.7417    0.0000 C   0  0  0  0  0  0  0  0  0  0  0  0
  -12.5417    9.4917    0.0000 C   0  0  0  0  0  0  0  0  0  0  0  0
   -6.8542   12.7000    0.0000 C   0  0  0  0  0  0  0  0  0  0  0  0
   -8.7542   15.9417    0.0000 C   0  0  0  0  0  0  0  0  0  0  0  0
  -14.3792   12.7292    0.0000 C   0  0  0  0  0  0  0  0  0  0  0  0
  2  1  1  0  0  0  0
  3  1  1  0  0  0  0
  4  2  1  0  0  0  0
  5  1  2  0  0  0  0
  6  2  2  0  0  0  0
  7  3  2  0  0  0  0
  8  5  1  0  0  0  0
  9  3  1  0  0  0  0
 10 12  1  0  0  0  0
 11  7  1  0  0  0  0
 12  4  1  0  0  0  0
 13 21  1  0  0  0  0
 14 10  2  0  0  0  0
 15 10  1  0  0  0  0
 16 13  1  0  0  0  0
 17 13  2  0  0  0  0
 18 16  1  0  0  0  0
 19 17  1  0  0  0  0
 20 24  1  0  0  0  0
 21 15  1  0  0  0  0
 22  9  1  0  0  0  0
 23  9  1  0  0  0  0
 24 23  1  0  0  0  0
 25 22  1  0  0  0  0
  8  6  1  0  0  0  0
  4 11  2  0  0  0  0
 20 25  1  0  0  0  0
 19 18  2  0  0  0  0
M  END
>  <ID> (7816048)
7816048

>  <Supplier> (7816048)
ChemBridge

>  <clogP> (7816048)
2.370000000000000e+000

>  <RB> (7816048)
4

>  <tPSA> (7816048)
8.859000000000006e+001

>  <Hacc> (7816048)
5

>  <Hdon> (7816048)
2

>  <LogSw> (7816048)
-2.835999999999999e+000

>  <Group> (7816048)
1

$$$$
5701083
  -ISIS-  03310818222D

 22 24  0  0  0  0  0  0  0  0999 V2000
   -5.6583    6.8167    0.0000 C   0  0  0  0  0  0  0  0  0  0  0  0
   -8.0917    7.0167    0.0000 C   0  0  0  0  0  0  0  0  0  0  0  0
   -4.6625    9.1667    0.0000 S   0  0  0  0  0  0  0  0  0  0  0  0
   -8.6792    9.3292    0.0000 C   0  0  0  0  0  0  0  0  0  0  0  0
   -4.3000    4.5667    0.0000 N   0  0  0  0  0  0  0  0  0  0  0  0
   -6.6500   10.7500    0.0000 C   0  0  0  0  0  0  0  0  0  0  0  0
   -1.7500    4.5667    0.0000 C   0  0  0  0  0  0  0  0  0  0  0  0
   -9.7042    4.9792    0.0000 C   0  0  0  0  0  0  0  0  0  0  0  0
   -0.4333    2.3500    0.0000 C   0  0  3  0  0  0  0  0  0  0  0  0
   -0.5625    6.8292    0.0000 O   0  0  0  0  0  0  0  0  0  0  0  0
   -8.9667    2.3500    0.0000 O   0  0  0  0  0  0  0  0  0  0  0  0
    2.2167    2.1958    0.0000 O   0  0  0  0  0  0  0  0  0  0  0  0
  -11.9542    5.5917    0.0000 N   0  0  0  0  0  0  0  0  0  0  0  0
  -11.2167    9.9417    0.0000 C   0  0  0  0  0  0  0  0  0  0  0  0
   -6.0042   13.2542    0.0000 C   0  0  0  0  0  0  0  0  0  0  0  0
    2.7875   -0.4000    0.0000 C   0  0  0  0  0  0  0  0  0  0  0  0
   -1.3125   -0.0292    0.0000 C   0  0  0  0  0  0  0  0  0  0  0  0
  -12.6292   12.1917    0.0000 C   0  0  0  0  0  0  0  0  0  0  0  0
   -7.4542   15.4500    0.0000 C   0  0  0  0  0  0  0  0  0  0  0  0
    0.6500   -1.6542    0.0000 C   0  0  0  0  0  0  0  0  0  0  0  0
   -9.9667   16.0000    0.0000 C   0  0  0  0  0  0  0  0  0  0  0  0
  -12.1875   14.5792    0.0000 C   0  0  0  0  0  0  0  0  0  0  0  0
  2  1  2  0  0  0  0
  3  1  1  0  0  0  0
  4  2  1  0  0  0  0
  5  1  1  0  0  0  0
  6  3  1  0  0  0  0
  7  5  1  0  0  0  0
  8  2  1  0  0  0  0
  9  7  1  0  0  0  0
 10  7  2  0  0  0  0
 11  8  2  0  0  0  0
 12  9  1  0  0  0  0
 13  8  1  0  0  0  0
 14  4  1  0  0  0  0
 15  6  1  0  0  0  0
 16 12  1  0  0  0  0
 17  9  1  0  0  0  0
 18 14  1  0  0  0  0
 19 15  1  0  0  0  0
 20 17  1  0  0  0  0
 21 19  1  0  0  0  0
 22 18  1  0  0  0  0
  6  4  2  0  0  0  0
 20 16  1  0  0  0  0
 22 21  1  0  0  0  0
M  END
>  <ID> (5701083)
5701083

>  <Supplier> (5701083)
ChemBridge

>  <clogP> (5701083)
3.040000000000000e+000

>  <RB> (5701083)
3

>  <tPSA> (5701083)
8.141999999999999e+001

>  <Hacc> (5701083)
3

>  <Hdon> (5701083)
2

>  <LogSw> (5701083)
-4.146999999999999e+000

>  <Group> (5701083)
3

>  <Core> (5701083)
097

$$$$
9031573
  -ISIS-  03310818282D

 19 20  0  0  0  0  0  0  0  0999 V2000
    4.5750    2.9958    0.0000 N   0  0  0  0  0  0  0  0  0  0  0  0
    5.2250    3.3708    0.0000 C   0  0  0  0  0  0  0  0  0  0  0  0
    5.2250    4.1042    0.0000 N   0  0  0  0  0  0  0  0  0  0  0  0
    3.9250    3.3708    0.0000 C   0  0  0  0  0  0  0  0  0  0  0  0
    3.9250    4.1042    0.0000 C   0  0  0  0  0  0  0  0  0  0  0  0
    4.5750    4.4792    0.0000 C   0  0  0  0  0  0  0  0  0  0  0  0
    7.8167    3.3708    0.0000 N   0  0  3  0  0  0  0  0  0  0  0  0
    7.1667    2.9958    0.0000 C   0  0  0  0  0  0  0  0  0  0  0  0
    5.8750    2.9958    0.0000 S   0  0  0  0  0  0  0  0  0  0  0  0
    6.5167    3.3708    0.0000 C   0  0  0  0  0  0  0  0  0  0  0  0
    4.5750    5.2292    0.0000 O   0  0  0  0  0  0  0  0  0  0  0  0
    7.1667    2.2458    0.0000 O   0  0  0  0  0  0  0  0  0  0  0  0
    3.2750    2.9958    0.0000 N   0  0  0  0  0  0  0  0  0  0  0  0
    8.4417    2.9458    0.0000 C   0  0  0  0  0  0  0  0  0  0  0  0
    7.7667    4.1042    0.0000 C   0  0  0  0  0  0  0  0  0  0  0  0
    8.3167    4.6167    0.0000 C   0  0  0  0  0  0  0  0  0  0  0  0
    9.1542    3.1708    0.0000 C   0  0  0  0  0  0  0  0  0  0  0  0
    9.4292    3.8625    0.0000 C   0  0  0  0  0  0  0  0  0  0  0  0
    9.0542    4.5042    0.0000 C   0  0  0  0  0  0  0  0  0  0  0  0
  2  1  2  0  0  0  0
  3  2  1  0  0  0  0
  4  1  1  0  0  0  0
  5  4  2  0  0  0  0
  6  5  1  0  0  0  0
  7  8  1  0  0  0  0
  8 10  1  0  0  0  0
  9  2  1  0  0  0  0
 10  9  1  0  0  0  0
 11  6  2  0  0  0  0
 12  8  2  0  0  0  0
 13  4  1  0  0  0  0
 14  7  1  0  0  0  0
 15  7  1  0  0  0  0
 16 15  1  0  0  0  0
 17 14  1  0  0  0  0
 18 17  1  0  0  0  0
 19 16  1  0  0  0  0
  6  3  1  0  0  0  0
 18 19  1  0  0  0  0
M  END
>  <ID> (9031573)
9031573

>  <Supplier> (9031573)
ChemBridge

>  <clogP> (9031573)
1.920000000000000e-001

>  <RB> (9031573)
3

>  <tPSA> (9031573)
9.208000000000000e+001

>  <Hacc> (9031573)
3

>  <Hdon> (9031573)
2

>  <LogSw> (9031573)
-2.734000000000000e+000

>  <Group> (9031573)
2

>  <Core> (9031573)
016

$$$$
6443622
  -ISIS-  03310818242D

 28 30  0  0  0  0  0  0  0  0999 V2000
    5.4542   -2.2500    0.0000 N   0  3  0  0  0  0  0  0  0  0  0  0
    5.4542   -1.4167    0.0000 C   0  0  0  0  0  0  0  0  0  0  0  0
    7.9500   -3.6417    0.0000 Cl  0  0  0  0  0  0  0  0  0  0  0  0
    4.7500   -2.6625    0.0000 C   0  0  0  0  0  0  0  0  0  0  0  0
    4.7500   -1.0000    0.0000 N   0  0  0  0  0  0  0  0  0  0  0  0
    4.0292   -2.2500    0.0000 C   0  0  0  0  0  0  0  0  0  0  0  0
    4.0292   -1.4167    0.0000 C   0  0  0  0  0  0  0  0  0  0  0  0
    6.1792   -2.6625    0.0000 C   0  0  0  0  0  0  0  0  0  0  0  0
    8.7792   -3.6292    0.0000 O   0  5  0  0  0  0  0  0  0  0  0  0
    7.9500   -2.8042    0.0000 O   0  0  0  0  0  0  0  0  0  0  0  0
    7.9500   -4.4417    0.0000 O   0  0  0  0  0  0  0  0  0  0  0  0
    7.1125   -3.6417    0.0000 O   0  0  0  0  0  0  0  0  0  0  0  0
    6.1792   -1.0000    0.0000 C   0  0  0  0  0  0  0  0  0  0  0  0
    4.7500   -3.4875    0.0000 C   0  0  0  0  0  0  0  0  0  0  0  0
    3.3167   -1.0000    0.0000 C   0  0  0  0  0  0  0  0  0  0  0  0
    6.8917   -2.2500    0.0000 C   0  0  0  0  0  0  0  0  0  0  0  0
    6.8917   -1.4167    0.0000 C   0  0  0  0  0  0  0  0  0  0  0  0
    4.0417   -3.9292    0.0000 C   0  0  0  0  0  0  0  0  0  0  0  0
    5.4542   -3.8667    0.0000 C   0  0  0  0  0  0  0  0  0  0  0  0
    2.6292   -1.4250    0.0000 C   0  0  0  0  0  0  0  0  0  0  0  0
    3.2917   -0.1542    0.0000 C   0  0  0  0  0  0  0  0  0  0  0  0
    7.6042   -1.0000    0.0000 C   0  0  0  0  0  0  0  0  0  0  0  0
    5.4875   -4.6917    0.0000 C   0  0  0  0  0  0  0  0  0  0  0  0
    1.8792   -1.0417    0.0000 C   0  0  0  0  0  0  0  0  0  0  0  0
    2.5625    0.2208    0.0000 C   0  0  0  0  0  0  0  0  0  0  0  0
    4.0750   -4.7292    0.0000 C   0  0  0  0  0  0  0  0  0  0  0  0
    1.8667   -0.2167    0.0000 C   0  0  0  0  0  0  0  0  0  0  0  0
    4.7917   -5.1167    0.0000 C   0  0  0  0  0  0  0  0  0  0  0  0
  2  1  2  0  0  0  0
  4  1  1  0  0  0  0
  5  2  1  0  0  0  0
  6  4  2  0  0  0  0
  7  6  1  0  0  0  0
  8  1  1  0  0  0  0
  9  3  1  0  0  0  0
 10  3  2  0  0  0  0
 11  3  2  0  0  0  0
 12  3  2  0  0  0  0
 13  2  1  0  0  0  0
 14  4  1  0  0  0  0
 15  7  1  0  0  0  0
 16  8  2  0  0  0  0
 17 16  1  0  0  0  0
 18 14  2  0  0  0  0
 19 14  1  0  0  0  0
 20 15  1  0  0  0  0
 21 15  2  0  0  0  0
 22 17  1  0  0  0  0
 23 19  2  0  0  0  0
 24 20  2  0  0  0  0
 25 21  1  0  0  0  0
 26 18  1  0  0  0  0
 27 25  2  0  0  0  0
 28 23  1  0  0  0  0
 13 17  2  0  0  0  0
  7  5  2  0  0  0  0
 26 28  2  0  0  0  0
 24 27  1  0  0  0  0
M  CHG  2   1   1   9  -1
M  END
>  <ID> (6443622)
6443622

>  <Supplier> (6443622)
ChemBridge

>  <clogP> (6443622)
4.570000000000000e+000

>  <RB> (6443622)
2

>  <tPSA> (6443622)
8.527000000000000e+001

>  <Hacc> (6443622)
6

>  <Hdon> (6443622)
0

>  <LogSw> (6443622)
-5.272000000000000e+000

>  <Group> (6443622)
3

$$$$
9145827
  -ISIS-  03310818292D

 28 31  0  0  0  0  0  0  0  0999 V2000
    3.7500    2.5000    0.0000 C   0  0  0  0  0  0  0  0  0  0  0  0
    4.4000    2.1250    0.0000 N   0  0  3  0  0  0  0  0  0  0  0  0
    3.1917    2.0000    0.0000 C   0  0  0  0  0  0  0  0  0  0  0  0
    4.2417    1.3958    0.0000 N   0  0  0  0  0  0  0  0  0  0  0  0
    5.0500    2.5000    0.0000 C   0  0  0  0  0  0  0  0  0  0  0  0
    3.5000    1.3125    0.0000 C   0  0  0  0  0  0  0  0  0  0  0  0
    3.7500    3.2500    0.0000 N   0  0  0  0  0  0  0  0  0  0  0  0
    5.0500    3.2500    0.0000 C   0  0  0  0  0  0  0  0  0  0  0  0
    2.4542    2.1583    0.0000 C   0  0  0  0  0  0  0  0  0  0  0  0
    4.4000    3.6250    0.0000 C   0  0  0  0  0  0  0  0  0  0  0  0
    7.6417    2.5000    0.0000 N   0  0  3  0  0  0  0  0  0  0  0  0
    5.7000    2.1250    0.0000 N   0  0  0  0  0  0  0  0  0  0  0  0
    2.2292    2.8708    0.0000 C   0  0  0  0  0  0  0  0  0  0  0  0
    8.9417    3.2500    0.0000 O   0  0  0  0  0  0  0  0  0  0  0  0
    3.1250    0.6625    0.0000 C   0  0  0  0  0  0  0  0  0  0  0  0
    6.3500    2.5000    0.0000 C   0  0  0  0  0  0  0  0  0  0  0  0
    2.7292    3.4250    0.0000 O   0  0  0  0  0  0  0  0  0  0  0  0
    7.0000    2.1250    0.0000 C   0  0  0  0  0  0  0  0  0  0  0  0
    1.9542    1.5958    0.0000 C   0  0  0  0  0  0  0  0  0  0  0  0
    7.6417    3.2500    0.0000 C   0  0  0  0  0  0  0  0  0  0  0  0
    8.2917    2.1250    0.0000 C   0  0  0  0  0  0  0  0  0  0  0  0
    4.4000    4.3667    0.0000 C   0  0  0  0  0  0  0  0  0  0  0  0
    8.2917    3.6250    0.0000 C   0  0  0  0  0  0  0  0  0  0  0  0
    8.9417    2.5000    0.0000 C   0  0  0  0  0  0  0  0  0  0  0  0
    1.4917    3.0250    0.0000 C   0  0  0  0  0  0  0  0  0  0  0  0
    2.4917    4.1292    0.0000 C   0  0  0  0  0  0  0  0  0  0  0  0
    1.2250    1.7583    0.0000 C   0  0  0  0  0  0  0  0  0  0  0  0
    0.9917    2.4708    0.0000 C   0  0  0  0  0  0  0  0  0  0  0  0
  2  1  1  0  0  0  0
  3  1  2  0  0  0  0
  4  2  1  0  0  0  0
  5  2  1  0  0  0  0
  6  3  1  0  0  0  0
  7  1  1  0  0  0  0
  8 10  1  0  0  0  0
  9  3  1  0  0  0  0
 10  7  2  0  0  0  0
 11 18  1  0  0  0  0
 12  5  1  0  0  0  0
 13  9  2  0  0  0  0
 14 24  1  0  0  0  0
 15  6  1  0  0  0  0
 16 12  1  0  0  0  0
 17 13  1  0  0  0  0
 18 16  1  0  0  0  0
 19  9  1  0  0  0  0
 20 11  1  0  0  0  0
 21 11  1  0  0  0  0
 22 10  1  0  0  0  0
 23 20  1  0  0  0  0
 24 21  1  0  0  0  0
 25 13  1  0  0  0  0
 26 17  1  0  0  0  0
 27 19  2  0  0  0  0
 28 27  1  0  0  0  0
  4  6  2  0  0  0  0
  8  5  2  0  0  0  0
 25 28  2  0  0  0  0
 23 14  1  0  0  0  0
M  END
>  <ID> (9145827)
9145827

>  <Supplier> (9145827)
ChemBridge

>  <clogP> (9145827)
3.409000000000000e+000

>  <RB> (9145827)
5

>  <tPSA> (9145827)
6.392000000000000e+001

>  <Hacc> (9145827)
5

>  <Hdon> (9145827)
1

>  <LogSw> (9145827)
-3.884000000000000e+000

>  <Group> (9145827)
2

>  <Core> (9145827)
353

$$$$
6443624
  -ISIS-  03310818242D

 28 30  0  0  0  0  0  0  0  0999 V2000
    5.7417   -4.4542    0.0000 S   0  0  3  0  0  0  0  0  0  0  0  0
    5.7417   -3.6292    0.0000 N   0  0  3  0  0  0  0  0  0  0  0  0
    6.4542   -3.2167    0.0000 C   0  0  0  0  0  0  0  0  0  0  0  0
    5.0250   -3.2167    0.0000 C   0  0  0  0  0  0  0  0  0  0  0  0
    7.1667   -3.6292    0.0000 C   0  0  0  0  0  0  0  0  0  0  0  0
    7.8792   -3.2167    0.0000 N   0  0  3  0  0  0  0  0  0  0  0  0
    5.0292   -2.3875    0.0000 C   0  0  0  0  0  0  0  0  0  0  0  0
    4.3125   -3.6417    0.0000 C   0  0  0  0  0  0  0  0  0  0  0  0
    6.3250   -5.0375    0.0000 O   0  0  0  0  0  0  0  0  0  0  0  0
    6.5667   -4.4542    0.0000 O   0  0  0  0  0  0  0  0  0  0  0  0
    5.0250   -4.8625    0.0000 C   0  0  0  0  0  0  0  0  0  0  0  0
    3.5917   -3.2167    0.0000 C   0  0  0  0  0  0  0  0  0  0  0  0
    4.3167   -1.9750    0.0000 C   0  0  0  0  0  0  0  0  0  0  0  0
    7.1667   -4.4542    0.0000 O   0  0  0  0  0  0  0  0  0  0  0  0
    3.5917   -2.3875    0.0000 C   0  0  0  0  0  0  0  0  0  0  0  0
    8.5917   -3.6167    0.0000 C   0  0  0  0  0  0  0  0  0  0  0  0
    7.8667   -2.3917    0.0000 C   0  0  0  0  0  0  0  0  0  0  0  0
    2.8750   -3.6250    0.0000 Cl  0  0  0  0  0  0  0  0  0  0  0  0
    4.3167   -1.1500    0.0000 Cl  0  0  0  0  0  0  0  0  0  0  0  0
    8.5792   -1.9667    0.0000 C   0  0  0  0  0  0  0  0  0  0  0  0
    9.3042   -3.2042    0.0000 C   0  0  0  0  0  0  0  0  0  0  0  0
    9.3000   -2.3792    0.0000 C   0  0  3  0  0  0  0  0  0  0  0  0
    4.3167   -4.4375    0.0000 C   0  0  0  0  0  0  0  0  0  0  0  0
    5.0167   -5.6792    0.0000 C   0  0  0  0  0  0  0  0  0  0  0  0
   10.0125   -1.9667    0.0000 C   0  0  0  0  0  0  0  0  0  0  0  0
    3.6000   -4.8417    0.0000 C   0  0  0  0  0  0  0  0  0  0  0  0
    4.3042   -6.0792    0.0000 C   0  0  0  0  0  0  0  0  0  0  0  0
    3.5917   -5.6667    0.0000 C   0  0  0  0  0  0  0  0  0  0  0  0
  2  1  1  0  0  0  0
  3  2  1  0  0  0  0
  4  2  1  0  0  0  0
  5  3  1  0  0  0  0
  6  5  1  0  0  0  0
  7  4  2  0  0  0  0
  8  4  1  0  0  0  0
  9  1  2  0  0  0  0
 10  1  2  0  0  0  0
 11  1  1  0  0  0  0
 12  8  2  0  0  0  0
 13  7  1  0  0  0  0
 14  5  2  0  0  0  0
 15 12  1  0  0  0  0
 16  6  1  0  0  0  0
 17  6  1  0  0  0  0
 18 12  1  0  0  0  0
 19 13  1  0  0  0  0
 20 17  1  0  0  0  0
 21 16  1  0  0  0  0
 22 20  1  0  0  0  0
 23 11  2  0  0  0  0
 24 11  1  0  0  0  0
 25 22  1  0  0  0  0
 26 23  1  0  0  0  0
 27 24  2  0  0  0  0
 28 27  1  0  0  0  0
 28 26  2  0  0  0  0
 13 15  2  0  0  0  0
 22 21  1  0  0  0  0
M  END
>  <ID> (6443624)
6443624

>  <Supplier> (6443624)
ChemBridge

>  <clogP> (6443624)
5.400000000000000e+000

>  <RB> (6443624)
4

>  <tPSA> (6443624)
5.769000000000000e+001

>  <Hacc> (6443624)
3

>  <Hdon> (6443624)
0

>  <LogSw> (6443624)
-7.029000000000000e+000

>  <Group> (6443624)
1

>  <Core> (6443624)
084

$$$$
7960987
  -ISIS-  03310818282D

 34 38  0  0  0  0  0  0  0  0999 V2000
    2.4167    1.6833    0.0000 S   0  0  3  0  0  0  0  0  0  0  0  0
    7.5542    0.5458    0.0000 S   0  0  3  0  0  0  0  0  0  0  0  0
    1.7667    2.0583    0.0000 C   0  0  0  0  0  0  0  0  0  0  0  0
    4.9292    2.3500    0.0000 C   0  0  0  0  0  0  0  0  0  0  0  0
    5.8667    1.5875    0.0000 C   0  0  0  0  0  0  0  0  0  0  0  0
    5.5542    2.7583    0.0000 O   0  0  0  0  0  0  0  0  0  0  0  0
    7.0792    1.1208    0.0000 C   0  0  0  0  0  0  0  0  0  0  0  0
    5.1167    1.6333    0.0000 C   0  0  0  0  0  0  0  0  0  0  0  0
    8.2417    0.8458    0.0000 N   0  0  3  0  0  0  0  0  0  0  0  0
    6.1417    2.2875    0.0000 C   0  0  0  0  0  0  0  0  0  0  0  0
    2.9500    2.2083    0.0000 N   0  0  0  0  0  0  0  0  0  0  0  0
    6.3417    1.0083    0.0000 C   0  0  0  0  0  0  0  0  0  0  0  0
    1.7667    2.8083    0.0000 C   0  0  0  0  0  0  0  0  0  0  0  0
    4.2042    2.5458    0.0000 C   0  0  0  0  0  0  0  0  0  0  0  0
    1.9875    1.0708    0.0000 O   0  0  0  0  0  0  0  0  0  0  0  0
    2.9917    1.1958    0.0000 O   0  0  0  0  0  0  0  0  0  0  0  0
    6.9292    0.1208    0.0000 O   0  0  0  0  0  0  0  0  0  0  0  0
    7.9167   -0.1167    0.0000 O   0  0  0  0  0  0  0  0  0  0  0  0
    1.1167    1.6833    0.0000 C   0  0  0  0  0  0  0  0  0  0  0  0
    4.5917    1.0958    0.0000 C   0  0  0  0  0  0  0  0  0  0  0  0
    3.6750    2.0208    0.0000 C   0  0  0  0  0  0  0  0  0  0  0  0
    7.3542    1.8208    0.0000 C   0  0  0  0  0  0  0  0  0  0  0  0
    6.8792    2.4083    0.0000 C   0  0  0  0  0  0  0  0  0  0  0  0
    0.4667    2.0583    0.0000 C   0  0  0  0  0  0  0  0  0  0  0  0
    1.1167    3.1833    0.0000 C   0  0  0  0  0  0  0  0  0  0  0  0
    3.8667    1.2958    0.0000 C   0  0  0  0  0  0  0  0  0  0  0  0
    0.4667    2.8083    0.0000 C   0  0  0  0  0  0  0  0  0  0  0  0
    1.1167    3.9333    0.0000 F   0  0  0  0  0  0  0  0  0  0  0  0
    1.1167    0.9333    0.0000 O   0  0  0  0  0  0  0  0  0  0  0  0
    8.8917    0.4708    0.0000 C   0  0  0  0  0  0  0  0  0  0  0  0
    8.3917    1.5833    0.0000 C   0  0  0  0  0  0  0  0  0  0  0  0
    0.4667    0.5583    0.0000 C   0  0  0  0  0  0  0  0  0  0  0  0
    9.4500    0.9708    0.0000 C   0  0  0  0  0  0  0  0  0  0  0  0
    9.1417    1.6583    0.0000 C   0  0  0  0  0  0  0  0  0  0  0  0
  2  7  1  0  0  0  0
  3  1  1  0  0  0  0
  4 14  1  0  0  0  0
  5  8  1  0  0  0  0
  6  4  1  0  0  0  0
  7 12  2  0  0  0  0
  8 20  1  0  0  0  0
  9  2  1  0  0  0  0
 10  6  1  0  0  0  0
 11  1  1  0  0  0  0
 12  5  1  0  0  0  0
 13  3  1  0  0  0  0
 14 21  2  0  0  0  0
 15  1  2  0  0  0  0
 16  1  2  0  0  0  0
 17  2  2  0  0  0  0
 18  2  2  0  0  0  0
 19  3  2  0  0  0  0
 20 26  2  0  0  0  0
 21 11  1  0  0  0  0
 22 23  2  0  0  0  0
 23 10  1  0  0  0  0
 24 19  1  0  0  0  0
 25 13  2  0  0  0  0
 26 21  1  0  0  0  0
 27 24  2  0  0  0  0
 28 25  1  0  0  0  0
 29 19  1  0  0  0  0
 30  9  1  0  0  0  0
 31  9  1  0  0  0  0
 32 29  1  0  0  0  0
 33 30  1  0  0  0  0
 34 31  1  0  0  0  0
 27 25  1  0  0  0  0
  8  4  2  0  0  0  0
  5 10  2  0  0  0  0
  7 22  1  0  0  0  0
 34 33  1  0  0  0  0
M  END
>  <ID> (7960987)
7960987

>  <Supplier> (7960987)
ChemBridge

>  <clogP> (7960987)
4.502000000000000e+000

>  <RB> (7960987)
3

>  <tPSA> (7960987)
1.059200000000000e+002

>  <Hacc> (7960987)
7

>  <Hdon> (7960987)
1

>  <LogSw> (7960987)
-7.832000000000000e+000

>  <Group> (7960987)
1

>  <Core> (7960987)
516

$$$$
9031574
  -ISIS-  03310818282D

 18 19  0  0  0  0  0  0  0  0999 V2000
    3.2042    2.5000    0.0000 C   0  0  0  0  0  0  0  0  0  0  0  0
    3.5792    1.8500    0.0000 N   0  0  0  0  0  0  0  0  0  0  0  0
    4.3292    1.8500    0.0000 C   0  0  0  0  0  0  0  0  0  0  0  0
    2.4542    2.5000    0.0000 C   0  0  0  0  0  0  0  0  0  0  0  0
    4.7042    1.2000    0.0000 C   0  0  0  0  0  0  0  0  0  0  0  0
    5.4542    1.2000    0.0000 C   0  0  0  0  0  0  0  0  0  0  0  0
    3.5792    3.1500    0.0000 O   0  0  0  0  0  0  0  0  0  0  0  0
    2.0792    3.1500    0.0000 C   0  0  0  0  0  0  0  0  0  0  0  0
    4.7042    2.5000    0.0000 C   0  0  0  0  0  0  0  0  0  0  0  0
    5.8292    1.8500    0.0000 C   0  0  0  0  0  0  0  0  0  0  0  0
    4.3292    0.5500    0.0000 O   0  0  0  0  0  0  0  0  0  0  0  0
    6.5792    1.8500    0.0000 N   0  0  0  0  0  0  0  0  0  0  0  0
    5.4542    2.5000    0.0000 C   0  0  0  0  0  0  0  0  0  0  0  0
    2.0792    1.8500    0.0000 C   0  0  0  0  0  0  0  0  0  0  0  0
    2.4542    3.8000    0.0000 C   0  0  0  0  0  0  0  0  0  0  0  0
    1.3292    3.1500    0.0000 C   0  0  0  0  0  0  0  0  0  0  0  0
    1.3292    1.8500    0.0000 C   0  0  0  0  0  0  0  0  0  0  0  0
    0.9542    2.5000    0.0000 C   0  0  0  0  0  0  0  0  0  0  0  0
  2  1  1  0  0  0  0
  3  2  1  0  0  0  0
  4  1  1  0  0  0  0
  5  3  1  0  0  0  0
  6  5  2  0  0  0  0
  7  1  2  0  0  0  0
  8  4  2  0  0  0  0
  9  3  2  0  0  0  0
 10 13  2  0  0  0  0
 11  5  1  0  0  0  0
 12 10  1  0  0  0  0
 13  9  1  0  0  0  0
 14  4  1  0  0  0  0
 15  8  1  0  0  0  0
 16  8  1  0  0  0  0
 17 14  2  0  0  0  0
 18 17  1  0  0  0  0
 18 16  2  0  0  0  0
 10  6  1  0  0  0  0
M  END
>  <ID> (9031574)
9031574

>  <Supplier> (9031574)
ChemBridge

>  <clogP> (9031574)
1.145000000000000e+000

>  <RB> (9031574)
2

>  <tPSA> (9031574)
7.534999999999998e+001

>  <Hacc> (9031574)
2

>  <Hdon> (9031574)
3

>  <LogSw> (9031574)
-1.946000000000000e+000

>  <Group> (9031574)
2

>  <Core> (9031574)
511

$$$$
9031575
  -ISIS-  03310818282D

 25 27  0  0  0  0  0  0  0  0999 V2000
    5.0792    2.5708    0.0000 C   0  0  0  0  0  0  0  0  0  0  0  0
    4.4750    1.5208    0.0000 N   0  0  3  0  0  0  0  0  0  0  0  0
    4.3917    2.2708    0.0000 C   0  0  0  0  0  0  0  0  0  0  0  0
    5.5792    2.0208    0.0000 C   0  0  0  0  0  0  0  0  0  0  0  0
    5.2375    3.3083    0.0000 C   0  0  0  0  0  0  0  0  0  0  0  0
    5.2042    1.3625    0.0000 C   0  0  0  0  0  0  0  0  0  0  0  0
    4.6792    3.8083    0.0000 C   0  0  0  0  0  0  0  0  0  0  0  0
    3.2042    1.2458    0.0000 C   0  0  0  0  0  0  0  0  0  0  0  0
    3.9167    1.0208    0.0000 C   0  0  0  0  0  0  0  0  0  0  0  0
    2.6417    0.7458    0.0000 N   0  0  0  0  0  0  0  0  0  0  0  0
    5.9500    3.5333    0.0000 O   0  0  0  0  0  0  0  0  0  0  0  0
    4.8292    4.5292    0.0000 O   0  0  0  0  0  0  0  0  0  0  0  0
    3.0417    1.9833    0.0000 O   0  0  0  0  0  0  0  0  0  0  0  0
    3.9667    3.5708    0.0000 N   0  0  0  0  0  0  0  0  0  0  0  0
    1.9292    0.9833    0.0000 C   0  0  0  0  0  0  0  0  0  0  0  0
    0.5042    1.4458    0.0000 C   0  0  0  0  0  0  0  0  0  0  0  0
   -0.2083    1.6708    0.0000 F   0  0  0  0  0  0  0  0  0  0  0  0
    6.3292    2.0208    0.0000 C   0  0  0  0  0  0  0  0  0  0  0  0
    1.3750    0.4750    0.0000 C   0  0  0  0  0  0  0  0  0  0  0  0
    1.7750    1.7125    0.0000 C   0  0  0  0  0  0  0  0  0  0  0  0
    1.0625    1.9458    0.0000 C   0  0  0  0  0  0  0  0  0  0  0  0
    0.6625    0.7083    0.0000 C   0  0  0  0  0  0  0  0  0  0  0  0
    5.5792    0.7125    0.0000 C   0  0  0  0  0  0  0  0  0  0  0  0
    6.7042    1.3625    0.0000 C   0  0  0  0  0  0  0  0  0  0  0  0
    6.3292    0.7125    0.0000 C   0  0  0  0  0  0  0  0  0  0  0  0
  2  3  1  0  0  0  0
  3  1  2  0  0  0  0
  4  1  1  0  0  0  0
  5  1  1  0  0  0  0
  6  4  2  0  0  0  0
  7  5  1  0  0  0  0
  8  9  1  0  0  0  0
  9  2  1  0  0  0  0
 10  8  1  0  0  0  0
 11  5  2  0  0  0  0
 12  7  2  0  0  0  0
 13  8  2  0  0  0  0
 14  7  1  0  0  0  0
 15 10  1  0  0  0  0
 16 21  1  0  0  0  0
 17 16  1  0  0  0  0
 18  4  1  0  0  0  0
 19 15  2  0  0  0  0
 20 15  1  0  0  0  0
 21 20  2  0  0  0  0
 22 19  1  0  0  0  0
 23  6  1  0  0  0  0
 24 18  2  0  0  0  0
 25 24  1  0  0  0  0
  2  6  1  0  0  0  0
 23 25  2  0  0  0  0
 22 16  2  0  0  0  0
M  END
>  <ID> (9031575)
9031575

>  <Supplier> (9031575)
ChemBridge

>  <clogP> (9031575)
9.060000000000000e-001

>  <RB> (9031575)
5

>  <tPSA> (9031575)
9.419000000000000e+001

>  <Hacc> (9031575)
3

>  <Hdon> (9031575)
2

>  <LogSw> (9031575)
-2.448000000000000e+000

>  <Group> (9031575)
3

>  <Core> (9031575)
503

$$$$
6578930
  -ISIS-  03310818242D

 33 34  0  0  0  0  0  0  0  0999 V2000
    5.5917    1.1708    0.0000 C   0  0  0  0  0  0  0  0  0  0  0  0
    6.2417    1.5458    0.0000 N   0  0  3  0  0  0  0  0  0  0  0  0
    4.1792    4.7542    0.0000 C   0  0  0  0  0  0  0  0  0  0  0  0
    4.9292    4.7667    0.0000 C   0  0  0  0  0  0  0  0  0  0  0  0
    3.6417    2.2958    0.0000 N   0  0  3  0  0  0  0  0  0  0  0  0
    4.9417    1.5458    0.0000 C   0  0  3  0  0  0  0  0  0  0  0  0
    6.8917    1.1708    0.0000 C   0  0  0  0  0  0  0  0  0  0  0  0
    5.5917    0.4208    0.0000 O   0  0  0  0  0  0  0  0  0  0  0  0
    3.7917    5.3917    0.0000 O   0  0  0  0  0  0  0  0  0  0  0  0
    5.3167    4.1292    0.0000 O   0  0  0  0  0  0  0  0  0  0  0  0
    2.9917    2.6708    0.0000 C   0  0  0  0  0  0  0  0  0  0  0  0
    4.2917    1.1708    0.0000 C   0  0  0  0  0  0  0  0  0  0  0  0
    4.9417    2.2958    0.0000 C   0  0  0  0  0  0  0  0  0  0  0  0
    4.2917    2.6708    0.0000 C   0  0  0  0  0  0  0  0  0  0  0  0
    3.6417    1.5458    0.0000 C   0  0  0  0  0  0  0  0  0  0  0  0
    5.2917    5.4292    0.0000 O   0  0  0  0  0  0  0  0  0  0  0  0
    3.8167    4.0917    0.0000 O   0  0  0  0  0  0  0  0  0  0  0  0
    2.3417    2.2958    0.0000 C   0  0  0  0  0  0  0  0  0  0  0  0
    7.5417    1.5458    0.0000 C   0  0  0  0  0  0  0  0  0  0  0  0
    1.0417    1.5458    0.0000 C   0  0  0  0  0  0  0  0  0  0  0  0
    2.3417    1.5458    0.0000 C   0  0  0  0  0  0  0  0  0  0  0  0
    1.6917    2.6708    0.0000 C   0  0  0  0  0  0  0  0  0  0  0  0
    1.0417    2.2958    0.0000 C   0  0  0  0  0  0  0  0  0  0  0  0
    1.6917    1.1708    0.0000 C   0  0  0  0  0  0  0  0  0  0  0  0
    6.2417    2.2958    0.0000 C   0  0  0  0  0  0  0  0  0  0  0  0
    6.8917    3.4208    0.0000 O   0  0  0  0  0  0  0  0  0  0  0  0
    6.8917    2.6708    0.0000 C   0  0  0  0  0  0  0  0  0  0  0  0
    0.3917    1.1708    0.0000 C   0  0  0  0  0  0  0  0  0  0  0  0
    8.1917    1.1708    0.0000 C   0  0  0  0  0  0  0  0  0  0  0  0
    7.5417    2.2958    0.0000 C   0  0  0  0  0  0  0  0  0  0  0  0
    8.1917    2.6708    0.0000 C   0  0  0  0  0  0  0  0  0  0  0  0
    8.8375    1.5458    0.0000 C   0  0  0  0  0  0  0  0  0  0  0  0
    8.8375    2.2958    0.0000 C   0  0  0  0  0  0  0  0  0  0  0  0
  2  1  1  0  0  0  0
  4  3  1  0  0  0  0
  5 14  1  0  0  0  0
  6  1  1  0  0  0  0
  7  2  1  0  0  0  0
  8  1  2  0  0  0  0
  9  3  2  0  0  0  0
 10  4  2  0  0  0  0
 11  5  1  0  0  0  0
 12  6  1  0  0  0  0
 13  6  1  0  0  0  0
 14 13  1  0  0  0  0
 15 12  1  0  0  0  0
 16  4  1  0  0  0  0
 17  3  1  0  0  0  0
 18 11  1  0  0  0  0
 19  7  1  0  0  0  0
 20 23  1  0  0  0  0
 21 18  2  0  0  0  0
 22 18  1  0  0  0  0
 23 22  2  0  0  0  0
 24 21  1  0  0  0  0
 25  2  1  0  0  0  0
 26 27  1  0  0  0  0
 27 25  1  0  0  0  0
 28 20  1  0  0  0  0
 29 19  1  0  0  0  0
 30 19  2  0  0  0  0
 31 30  1  0  0  0  0
 32 29  2  0  0  0  0
 33 31  2  0  0  0  0
 15  5  1  0  0  0  0
 32 33  1  0  0  0  0
 24 20  2  0  0  0  0
M  END
>  <ID> (6578930)
6578930

>  <Supplier> (6578930)
ChemBridge

>  <clogP> (6578930)
5.000000000000000e-001

>  <RB> (6578930)
7

>  <tPSA> (6578930)
1.183800000000000e+002

>  <Hacc> (6578930)
7

>  <Hdon> (6578930)
3

>  <LogSw> (6578930)
-2.299000000000000e+000

>  <Group> (6578930)
3

>  <Core> (6578930)
052

$$$$
6578933
  -ISIS-  03310818242D

 27 29  0  0  0  0  0  0  0  0999 V2000
    0.4292    1.0625    0.0000 C   0  0  0  0  0  0  0  0  0  0  0  0
    1.1417    1.4750    0.0000 N   0  0  3  0  0  0  0  0  0  0  0  0
    0.4292   -1.4125    0.0000 N   0  0  3  0  0  0  0  0  0  0  0  0
    0.4292    0.2375    0.0000 C   0  0  3  0  0  0  0  0  0  0  0  0
    1.1417    2.2583    0.0000 C   0  0  0  0  0  0  0  0  0  0  0  0
   -0.2833    1.4750    0.0000 O   0  0  0  0  0  0  0  0  0  0  0  0
    0.4292   -2.2375    0.0000 C   0  0  0  0  0  0  0  0  0  0  0  0
   -0.2833   -0.1792    0.0000 C   0  0  0  0  0  0  0  0  0  0  0  0
    1.1417   -0.1792    0.0000 C   0  0  0  0  0  0  0  0  0  0  0  0
    1.1417   -1.0042    0.0000 C   0  0  0  0  0  0  0  0  0  0  0  0
   -0.2833   -1.0042    0.0000 C   0  0  0  0  0  0  0  0  0  0  0  0
   -0.3750   -2.7000    0.0000 C   0  0  0  0  0  0  0  0  0  0  0  0
   -2.0083   -3.6417    0.0000 C   0  0  0  0  0  0  0  0  0  0  0  0
    1.8250    2.6625    0.0000 C   0  0  0  0  0  0  0  0  0  0  0  0
   -2.8125   -4.1042    0.0000 F   0  0  0  0  0  0  0  0  0  0  0  0
   -2.0083   -2.7042    0.0000 C   0  0  0  0  0  0  0  0  0  0  0  0
   -1.1958   -4.1042    0.0000 C   0  0  0  0  0  0  0  0  0  0  0  0
   -0.3833   -3.6292    0.0000 C   0  0  0  0  0  0  0  0  0  0  0  0
   -1.1875   -2.2292    0.0000 C   0  0  0  0  0  0  0  0  0  0  0  0
    1.8292    1.0833    0.0000 C   0  0  0  0  0  0  0  0  0  0  0  0
    3.1917    1.0833    0.0000 O   0  0  0  0  0  0  0  0  0  0  0  0
    2.5042    1.4833    0.0000 C   0  0  0  0  0  0  0  0  0  0  0  0
    1.8167    3.4458    0.0000 C   0  0  0  0  0  0  0  0  0  0  0  0
    2.5042    2.2708    0.0000 C   0  0  0  0  0  0  0  0  0  0  0  0
    3.1917    2.6708    0.0000 C   0  0  0  0  0  0  0  0  0  0  0  0
    2.5000    3.8583    0.0000 C   0  0  0  0  0  0  0  0  0  0  0  0
    3.1875    3.4583    0.0000 C   0  0  0  0  0  0  0  0  0  0  0  0
  2  1  1  0  0  0  0
  3 10  1  0  0  0  0
  4  1  1  0  0  0  0
  5  2  1  0  0  0  0
  6  1  2  0  0  0  0
  7  3  1  0  0  0  0
  8  4  1  0  0  0  0
  9  4  1  0  0  0  0
 10  9  1  0  0  0  0
 11  8  1  0  0  0  0
 12  7  1  0  0  0  0
 13 16  1  0  0  0  0
 14  5  1  0  0  0  0
 15 13  1  0  0  0  0
 16 19  2  0  0  0  0
 17 18  1  0  0  0  0
 18 12  2  0  0  0  0
 19 12  1  0  0  0  0
 20  2  1  0  0  0  0
 21 22  1  0  0  0  0
 22 20  1  0  0  0  0
 23 14  1  0  0  0  0
 24 14  2  0  0  0  0
 25 24  1  0  0  0  0
 26 23  2  0  0  0  0
 27 25  2  0  0  0  0
 11  3  1  0  0  0  0
 26 27  1  0  0  0  0
 17 13  2  0  0  0  0
M  END
>  <ID> (6578933)
6578933

>  <Supplier> (6578933)
ChemBridge

>  <clogP> (6578933)
2.700000000000000e+000

>  <RB> (6578933)
7

>  <tPSA> (6578933)
4.378000000000000e+001

>  <Hacc> (6578933)
3

>  <Hdon> (6578933)
1

>  <LogSw> (6578933)
-4.207000000000000e+000

>  <Group> (6578933)
3

>  <Core> (6578933)
052

$$$$
6578932
  -ISIS-  03310818242D

 33 34  0  0  0  0  0  0  0  0999 V2000
    3.7542    2.3375    0.0000 C   0  0  0  0  0  0  0  0  0  0  0  0
    3.1042    1.9625    0.0000 N   0  0  3  0  0  0  0  0  0  0  0  0
    4.1250    4.4667    0.0000 C   0  0  0  0  0  0  0  0  0  0  0  0
    4.8750    4.4417    0.0000 C   0  0  0  0  0  0  0  0  0  0  0  0
    5.7042    1.2125    0.0000 N   0  0  3  0  0  0  0  0  0  0  0  0
    7.0042    1.2125    0.0000 C   0  0  0  0  0  0  0  0  0  0  0  0
    6.3542    0.8375    0.0000 C   0  0  0  0  0  0  0  0  0  0  0  0
    4.4042    1.9625    0.0000 C   0  0  3  0  0  0  0  0  0  0  0  0
    2.4542    2.3375    0.0000 C   0  0  0  0  0  0  0  0  0  0  0  0
    3.7542    3.0875    0.0000 O   0  0  0  0  0  0  0  0  0  0  0  0
    7.6542    0.8375    0.0000 C   0  0  0  0  0  0  0  0  0  0  0  0
    3.7667    5.1292    0.0000 O   0  0  0  0  0  0  0  0  0  0  0  0
    5.2292    3.7958    0.0000 O   0  0  0  0  0  0  0  0  0  0  0  0
    5.0542    2.3375    0.0000 C   0  0  0  0  0  0  0  0  0  0  0  0
    4.4042    1.2125    0.0000 C   0  0  0  0  0  0  0  0  0  0  0  0
    5.0542    0.8375    0.0000 C   0  0  0  0  0  0  0  0  0  0  0  0
    5.7042    1.9625    0.0000 C   0  0  0  0  0  0  0  0  0  0  0  0
    5.2667    5.0792    0.0000 O   0  0  0  0  0  0  0  0  0  0  0  0
    3.7292    3.8375    0.0000 O   0  0  0  0  0  0  0  0  0  0  0  0
    7.6542    0.0875    0.0000 F   0  0  0  0  0  0  0  0  0  0  0  0
    1.8042    1.9625    0.0000 C   0  0  0  0  0  0  0  0  0  0  0  0
    3.1042    1.2125    0.0000 C   0  0  0  0  0  0  0  0  0  0  0  0
    7.0042    1.9625    0.0000 C   0  0  0  0  0  0  0  0  0  0  0  0
    2.4542    0.0875    0.0000 O   0  0  0  0  0  0  0  0  0  0  0  0
    8.3000    1.2125    0.0000 C   0  0  0  0  0  0  0  0  0  0  0  0
    2.4542    0.8375    0.0000 C   0  0  0  0  0  0  0  0  0  0  0  0
    1.1542    2.3375    0.0000 C   0  0  0  0  0  0  0  0  0  0  0  0
    1.8042    1.2125    0.0000 C   0  0  0  0  0  0  0  0  0  0  0  0
    7.6542    2.3375    0.0000 C   0  0  0  0  0  0  0  0  0  0  0  0
    8.3000    1.9625    0.0000 C   0  0  0  0  0  0  0  0  0  0  0  0
    1.1542    0.8375    0.0000 C   0  0  0  0  0  0  0  0  0  0  0  0
    0.5042    1.9625    0.0000 C   0  0  0  0  0  0  0  0  0  0  0  0
    0.5042    1.2125    0.0000 C   0  0  0  0  0  0  0  0  0  0  0  0
  2  1  1  0  0  0  0
  4  3  1  0  0  0  0
  5 16  1  0  0  0  0
  6  7  1  0  0  0  0
  7  5  1  0  0  0  0
  8  1  1  0  0  0  0
  9  2  1  0  0  0  0
 10  1  2  0  0  0  0
 11  6  1  0  0  0  0
 12  3  2  0  0  0  0
 13  4  2  0  0  0  0
 14  8  1  0  0  0  0
 15  8  1  0  0  0  0
 16 15  1  0  0  0  0
 17 14  1  0  0  0  0
 18  4  1  0  0  0  0
 19  3  1  0  0  0  0
 20 11  1  0  0  0  0
 21  9  1  0  0  0  0
 22  2  1  0  0  0  0
 23  6  2  0  0  0  0
 24 26  1  0  0  0  0
 25 11  2  0  0  0  0
 26 22  1  0  0  0  0
 27 21  1  0  0  0  0
 28 21  2  0  0  0  0
 29 23  1  0  0  0  0
 30 29  2  0  0  0  0
 31 28  1  0  0  0  0
 32 27  2  0  0  0  0
 33 31  2  0  0  0  0
 17  5  1  0  0  0  0
 32 33  1  0  0  0  0
 30 25  1  0  0  0  0
M  END
>  <ID> (6578932)
6578932

>  <Supplier> (6578932)
ChemBridge

>  <clogP> (6578932)
-8.000000000000000e-002

>  <RB> (6578932)
7

>  <tPSA> (6578932)
1.183800000000000e+002

>  <Hacc> (6578932)
7

>  <Hdon> (6578932)
3

>  <LogSw> (6578932)
-3.143000000000000e+000

>  <Group> (6578932)
3

>  <Core> (6578932)
052

$$$$
5244678
  -ISIS-  03310818212D

 25 27  0  0  0  0  0  0  0  0999 V2000
   -3.4208   -0.7875    0.0000 C   0  0  0  0  0  0  0  0  0  0  0  0
   -3.4625   -1.4292    0.0000 S   0  0  0  0  0  0  0  0  0  0  0  0
   -4.0000   -0.5042    0.0000 C   0  0  0  0  0  0  0  0  0  0  0  0
   -4.4458   -0.9875    0.0000 C   0  0  0  0  0  0  0  0  0  0  0  0
   -4.1208   -1.5667    0.0000 C   0  0  0  0  0  0  0  0  0  0  0  0
   -2.8208   -0.4500    0.0000 C   0  0  0  0  0  0  0  0  0  0  0  0
    0.0375    0.5958    0.0000 C   0  0  0  0  0  0  0  0  0  0  0  0
    0.6000    0.2958    0.0000 C   0  0  0  0  0  0  0  0  0  0  0  0
   -2.8208    0.2333    0.0000 O   0  0  0  0  0  0  0  0  0  0  0  0
   -0.5458    0.2500    0.0000 C   0  0  0  0  0  0  0  0  0  0  0  0
   -4.1000    0.1708    0.0000 Cl  0  0  0  0  0  0  0  0  0  0  0  0
   -2.2458   -0.7875    0.0000 N   0  0  0  0  0  0  0  0  0  0  0  0
    0.6375   -0.3875    0.0000 C   0  0  0  0  0  0  0  0  0  0  0  0
   -0.5208   -0.4292    0.0000 C   0  0  0  0  0  0  0  0  0  0  0  0
    0.0792   -0.7500    0.0000 C   0  0  0  0  0  0  0  0  0  0  0  0
    0.0542    1.2500    0.0000 O   0  0  0  0  0  0  0  0  0  0  0  0
   -5.1000   -0.9667    0.0000 C   0  0  0  0  0  0  0  0  0  0  0  0
    1.1292    0.6833    0.0000 O   0  0  0  0  0  0  0  0  0  0  0  0
   -1.6833   -0.4500    0.0000 C   0  0  0  0  0  0  0  0  0  0  0  0
   -4.4708   -2.1292    0.0000 C   0  0  0  0  0  0  0  0  0  0  0  0
   -1.0833   -0.7667    0.0000 C   0  0  0  0  0  0  0  0  0  0  0  0
    0.6292    1.5500    0.0000 C   0  0  0  0  0  0  0  0  0  0  0  0
    1.7292    0.4208    0.0000 C   0  0  0  0  0  0  0  0  0  0  0  0
   -5.4458   -1.5500    0.0000 C   0  0  0  0  0  0  0  0  0  0  0  0
   -5.1208   -2.1292    0.0000 C   0  0  0  0  0  0  0  0  0  0  0  0
  2  1  1  0  0  0  0
  3  1  2  0  0  0  0
  4  3  1  0  0  0  0
  5  2  1  0  0  0  0
  6  1  1  0  0  0  0
  7 10  1  0  0  0  0
  8 13  1  0  0  0  0
  9  6  2  0  0  0  0
 10 14  2  0  0  0  0
 11  3  1  0  0  0  0
 12  6  1  0  0  0  0
 13 15  2  0  0  0  0
 14 21  1  0  0  0  0
 15 14  1  0  0  0  0
 16  7  1  0  0  0  0
 17  4  1  0  0  0  0
 18  8  1  0  0  0  0
 19 12  1  0  0  0  0
 20  5  1  0  0  0  0
 21 19  1  0  0  0  0
 22 16  1  0  0  0  0
 23 18  1  0  0  0  0
 24 17  2  0  0  0  0
 25 20  2  0  0  0  0
  5  4  2  0  0  0  0
 25 24  1  0  0  0  0
  8  7  2  0  0  0  0
M  END
>  <ID> (5244678)
5244678

>  <Supplier> (5244678)
ChemBridge

>  <clogP> (5244678)
3.820000000000000e+000

>  <RB> (5244678)
4

>  <tPSA> (5244678)
4.756000000000000e+001

>  <Hacc> (5244678)
3

>  <Hdon> (5244678)
1

>  <LogSw> (5244678)
-5.203000000000000e+000

>  <Group> (5244678)
3

>  <Core> (5244678)
351

$$$$
6380256
  -ISIS-  03310818232D

 30 33  0  0  0  0  0  0  0  0999 V2000
    5.7292   -5.2000    0.0000 C   0  0  0  0  0  0  0  0  0  0  0  0
    5.4292   -4.5167    0.0000 C   0  0  0  0  0  0  0  0  0  0  0  0
    7.0542   -4.9417    0.0000 C   0  0  3  0  0  0  0  0  0  0  0  0
    5.2917   -5.8042    0.0000 N   0  0  0  0  0  0  0  0  0  0  0  0
    6.4542   -5.3917    0.0000 O   0  0  0  0  0  0  0  0  0  0  0  0
    5.7667   -3.8542    0.0000 C   0  0  0  0  0  0  0  0  0  0  0  0
    7.7250   -5.2875    0.0000 C   0  0  0  0  0  0  0  0  0  0  0  0
    7.0792   -4.1917    0.0000 N   0  0  0  0  0  0  0  0  0  0  0  0
    4.6792   -4.4292    0.0000 N   0  0  0  0  0  0  0  0  0  0  0  0
    6.5042   -3.7042    0.0000 C   0  0  0  0  0  0  0  0  0  0  0  0
    4.5417   -5.7292    0.0000 C   0  0  0  0  0  0  0  0  0  0  0  0
    4.2417   -5.0375    0.0000 N   0  0  0  0  0  0  0  0  0  0  0  0
    8.3542   -4.8792    0.0000 C   0  0  0  0  0  0  0  0  0  0  0  0
    7.7542   -6.0375    0.0000 C   0  0  0  0  0  0  0  0  0  0  0  0
    5.2667   -3.2875    0.0000 C   0  0  0  0  0  0  0  0  0  0  0  0
    6.7500   -2.9917    0.0000 C   0  0  0  0  0  0  0  0  0  0  0  0
    4.1042   -6.3375    0.0000 S   0  0  0  0  0  0  0  0  0  0  0  0
    9.0167   -5.2292    0.0000 C   0  0  0  0  0  0  0  0  0  0  0  0
    5.5167   -2.5667    0.0000 C   0  0  0  0  0  0  0  0  0  0  0  0
    8.4167   -6.3792    0.0000 C   0  0  0  0  0  0  0  0  0  0  0  0
    6.2542   -2.4250    0.0000 C   0  0  0  0  0  0  0  0  0  0  0  0
    9.0500   -5.9792    0.0000 C   0  0  0  0  0  0  0  0  0  0  0  0
    5.0167   -2.0000    0.0000 Br  0  0  0  0  0  0  0  0  0  0  0  0
    8.3292   -4.1292    0.0000 O   0  0  0  0  0  0  0  0  0  0  0  0
    8.4542   -7.1292    0.0000 O   0  0  0  0  0  0  0  0  0  0  0  0
    3.3542   -6.2542    0.0000 C   0  0  0  0  0  0  0  0  0  0  0  0
    8.9625   -3.7292    0.0000 C   0  0  0  0  0  0  0  0  0  0  0  0
    9.1167   -7.4792    0.0000 C   0  0  0  0  0  0  0  0  0  0  0  0
    3.0542   -5.5750    0.0000 C   0  0  0  0  0  0  0  0  0  0  0  0
    2.3042   -5.4917    0.0000 C   0  0  0  0  0  0  0  0  0  0  0  0
  2  1  2  0  0  0  0
  3  5  1  0  0  0  0
  4  1  1  0  0  0  0
  5  1  1  0  0  0  0
  6  2  1  0  0  0  0
  7  3  1  0  0  0  0
  8  3  1  0  0  0  0
  9  2  1  0  0  0  0
 10  6  2  0  0  0  0
 11  4  2  0  0  0  0
 12 11  1  0  0  0  0
 13  7  2  0  0  0  0
 14  7  1  0  0  0  0
 15  6  1  0  0  0  0
 16 10  1  0  0  0  0
 17 11  1  0  0  0  0
 18 13  1  0  0  0  0
 19 15  2  0  0  0  0
 20 14  2  0  0  0  0
 21 19  1  0  0  0  0
 22 20  1  0  0  0  0
 23 19  1  0  0  0  0
 24 13  1  0  0  0  0
 25 20  1  0  0  0  0
 26 17  1  0  0  0  0
 27 24  1  0  0  0  0
 28 25  1  0  0  0  0
 29 26  1  0  0  0  0
 30 29  1  0  0  0  0
  9 12  2  0  0  0  0
  8 10  1  0  0  0  0
 16 21  2  0  0  0  0
 22 18  2  0  0  0  0
M  END
>  <ID> (6380256)
6380256

>  <Supplier> (6380256)
ChemBridge

>  <clogP> (6380256)
5.410000000000000e+000

>  <RB> (6380256)
2

>  <tPSA> (6380256)
7.839000000000000e+001

>  <Hacc> (6380256)
6

>  <Hdon> (6380256)
1

>  <LogSw> (6380256)
-8.497000000000000e+000

>  <Group> (6380256)
1

>  <Core> (6380256)
070

$$$$
7179652
  -ISIS-  03310818252D

 27 29  0  0  0  0  0  0  0  0999 V2000
   -0.6708    0.2708    0.0000 C   0  0  0  0  0  0  0  0  0  0  0  0
   -0.6708    0.9458    0.0000 C   0  0  0  0  0  0  0  0  0  0  0  0
   -1.3458    0.0500    0.0000 S   0  0  0  0  0  0  0  0  0  0  0  0
   -1.3458    1.1708    0.0000 C   0  0  0  0  0  0  0  0  0  0  0  0
   -1.7458    0.6125    0.0000 C   0  0  0  0  0  0  0  0  0  0  0  0
   -0.0625   -0.0792    0.0000 N   0  0  0  0  0  0  0  0  0  0  0  0
    1.7792   -1.8500    0.0000 N   0  0  0  0  0  0  0  0  0  0  0  0
   -0.0833    1.3625    0.0000 C   0  0  0  0  0  0  0  0  0  0  0  0
    1.2000   -2.2042    0.0000 C   0  0  0  0  0  0  0  0  0  0  0  0
    2.3667   -2.2042    0.0000 C   0  0  0  0  0  0  0  0  0  0  0  0
    1.7792   -3.2500    0.0000 C   0  0  0  0  0  0  0  0  0  0  0  0
   -0.0625   -0.7792    0.0000 C   0  0  0  0  0  0  0  0  0  0  0  0
    2.3667   -2.9042    0.0000 C   0  0  0  0  0  0  0  0  0  0  0  0
    1.2000   -2.9042    0.0000 C   0  0  0  0  0  0  0  0  0  0  0  0
    0.5500   -1.8500    0.0000 S   0  0  0  0  0  0  0  0  0  0  0  0
   -0.1708    2.0625    0.0000 O   0  0  0  0  0  0  0  0  0  0  0  0
   -0.6458   -1.1500    0.0000 O   0  0  0  0  0  0  0  0  0  0  0  0
    0.5500   -1.1500    0.0000 C   0  0  0  0  0  0  0  0  0  0  0  0
    0.5167    1.0833    0.0000 O   0  0  0  0  0  0  0  0  0  0  0  0
   -1.5708    1.8458    0.0000 C   0  0  0  0  0  0  0  0  0  0  0  0
   -2.4458    0.6458    0.0000 C   0  0  0  0  0  0  0  0  0  0  0  0
    1.7542   -3.9500    0.0000 C   0  0  0  0  0  0  0  0  0  0  0  0
    2.9875   -1.8500    0.0000 C   0  0  0  0  0  0  0  0  0  0  0  0
    2.9875   -3.2500    0.0000 C   0  0  0  0  0  0  0  0  0  0  0  0
    1.0792    1.4833    0.0000 C   0  0  0  0  0  0  0  0  0  0  0  0
    3.5792   -2.2042    0.0000 C   0  0  0  0  0  0  0  0  0  0  0  0
    3.5792   -2.9042    0.0000 C   0  0  0  0  0  0  0  0  0  0  0  0
  2  1  2  0  0  0  0
  3  1  1  0  0  0  0
  4  2  1  0  0  0  0
  5  3  1  0  0  0  0
  6  1  1  0  0  0  0
  7  9  1  0  0  0  0
  8  2  1  0  0  0  0
  9 15  1  0  0  0  0
 10  7  2  0  0  0  0
 11 14  1  0  0  0  0
 12  6  1  0  0  0  0
 13 11  2  0  0  0  0
 14  9  2  0  0  0  0
 15 18  1  0  0  0  0
 16  8  2  0  0  0  0
 17 12  2  0  0  0  0
 18 12  1  0  0  0  0
 19  8  1  0  0  0  0
 20  4  1  0  0  0  0
 21  5  1  0  0  0  0
 22 11  1  0  0  0  0
 23 10  1  0  0  0  0
 24 13  1  0  0  0  0
 25 19  1  0  0  0  0
 26 23  2  0  0  0  0
 27 24  2  0  0  0  0
  5  4  2  0  0  0  0
 10 13  1  0  0  0  0
 26 27  1  0  0  0  0
M  END
>  <ID> (7179652)
7179652

>  <Supplier> (7179652)
ChemBridge

>  <clogP> (7179652)
5.319999999999999e+000

>  <RB> (7179652)
5

>  <tPSA> (7179652)
6.829000000000001e+001

>  <Hacc> (7179652)
4

>  <Hdon> (7179652)
1

>  <LogSw> (7179652)
-6.662999999999998e+000

>  <Group> (7179652)
2

>  <Core> (7179652)
098

$$$$
5282529
  -ISIS-  03310818212D

 23 24  0  0  0  0  0  0  0  0999 V2000
    3.1542   -2.3042    0.0000 S   0  0  3  0  0  0  0  0  0  0  0  0
   -0.6833    1.0500    0.0000 C   0  0  0  0  0  0  0  0  0  0  0  0
   -1.6458    1.6125    0.0000 C   0  0  0  0  0  0  0  0  0  0  0  0
   -0.7000   -0.0667    0.0000 N   0  0  0  0  0  0  0  0  0  0  0  0
    2.1792   -1.7667    0.0000 C   0  0  0  0  0  0  0  0  0  0  0  0
   -1.6458    2.7125    0.0000 C   0  0  0  0  0  0  0  0  0  0  0  0
   -2.6000    3.2708    0.0000 C   0  0  0  0  0  0  0  0  0  0  0  0
    3.7167   -1.3292    0.0000 O   0  0  0  0  0  0  0  0  0  0  0  0
    2.6167   -3.2875    0.0000 O   0  0  0  0  0  0  0  0  0  0  0  0
    4.1375   -2.8667    0.0000 N   0  0  0  0  0  0  0  0  0  0  0  0
   -3.5625    2.7125    0.0000 C   0  0  0  0  0  0  0  0  0  0  0  0
    0.2792    1.6125    0.0000 O   0  0  0  0  0  0  0  0  0  0  0  0
   -2.6000    1.0500    0.0000 C   0  0  0  0  0  0  0  0  0  0  0  0
   -3.5625    1.5958    0.0000 C   0  0  0  0  0  0  0  0  0  0  0  0
    2.1792   -0.6500    0.0000 C   0  0  0  0  0  0  0  0  0  0  0  0
    1.2167   -2.3292    0.0000 C   0  0  0  0  0  0  0  0  0  0  0  0
    0.2542   -0.6500    0.0000 C   0  0  0  0  0  0  0  0  0  0  0  0
    0.2542   -1.7667    0.0000 C   0  0  0  0  0  0  0  0  0  0  0  0
    1.2167   -0.1042    0.0000 C   0  0  0  0  0  0  0  0  0  0  0  0
   -2.6000    4.3792    0.0000 O   0  0  0  0  0  0  0  0  0  0  0  0
   -4.5208    3.2708    0.0000 O   0  0  0  0  0  0  0  0  0  0  0  0
   -1.6458    4.9292    0.0000 C   0  0  0  0  0  0  0  0  0  0  0  0
   -4.5208    4.3792    0.0000 C   0  0  0  0  0  0  0  0  0  0  0  0
  2  4  1  0  0  0  0
  3  2  1  0  0  0  0
  4 17  1  0  0  0  0
  5  1  1  0  0  0  0
  6  3  2  0  0  0  0
  7  6  1  0  0  0  0
  8  1  2  0  0  0  0
  9  1  2  0  0  0  0
 10  1  1  0  0  0  0
 11 14  1  0  0  0  0
 12  2  2  0  0  0  0
 13  3  1  0  0  0  0
 14 13  2  0  0  0  0
 15  5  1  0  0  0  0
 16  5  2  0  0  0  0
 17 18  2  0  0  0  0
 18 16  1  0  0  0  0
 19 15  2  0  0  0  0
 20  7  1  0  0  0  0
 21 11  1  0  0  0  0
 22 20  1  0  0  0  0
 23 21  1  0  0  0  0
 19 17  1  0  0  0  0
 11  7  2  0  0  0  0
M  END
>  <ID> (5282529)
5282529

>  <Supplier> (5282529)
ChemBridge

>  <clogP> (5282529)
8.900000000000000e-001

>  <RB> (5282529)
3

>  <tPSA> (5282529)
1.077200000000000e+002

>  <Hacc> (5282529)
6

>  <Hdon> (5282529)
2

>  <LogSw> (5282529)
-2.413000000000000e+000

>  <Group> (5282529)
2

>  <Core> (5282529)
234

$$$$
7179657
  -ISIS-  03310818252D

 19 20  0  0  0  0  0  0  0  0999 V2000
    2.2250   -0.8917    0.0000 S   0  0  3  0  0  0  0  0  0  0  0  0
    2.7125   -1.2375    0.0000 N   0  0  0  0  0  0  0  0  0  0  0  0
    3.2417   -1.2292    0.0000 C   0  0  0  0  0  0  0  0  0  0  0  0
    3.5000   -0.7750    0.0000 C   0  0  0  0  0  0  0  0  0  0  0  0
    4.0292   -0.7667    0.0000 C   0  0  0  0  0  0  0  0  0  0  0  0
    3.5042   -1.6875    0.0000 C   0  0  0  0  0  0  0  0  0  0  0  0
    1.7542   -0.8292    0.0000 C   0  0  0  0  0  0  0  0  0  0  0  0
    2.4417   -0.3375    0.0000 O   0  0  0  0  0  0  0  0  0  0  0  0
    2.0042   -1.4500    0.0000 O   0  0  0  0  0  0  0  0  0  0  0  0
    4.3000   -1.2250    0.0000 C   0  0  0  0  0  0  0  0  0  0  0  0
    4.0375   -1.6792    0.0000 C   0  0  0  0  0  0  0  0  0  0  0  0
    4.8250   -1.2167    0.0000 O   0  0  0  0  0  0  0  0  0  0  0  0
    1.4667   -1.2000    0.0000 C   0  0  0  0  0  0  0  0  0  0  0  0
    1.5792   -0.3875    0.0000 C   0  0  0  0  0  0  0  0  0  0  0  0
    0.8250   -0.6917    0.0000 C   0  0  0  0  0  0  0  0  0  0  0  0
    1.1167   -0.3250    0.0000 C   0  0  0  0  0  0  0  0  0  0  0  0
    1.0000   -1.1292    0.0000 C   0  0  0  0  0  0  0  0  0  0  0  0
    0.3542   -0.6292    0.0000 Cl  0  0  0  0  0  0  0  0  0  0  0  0
    3.2375   -0.3167    0.0000 C   0  0  0  0  0  0  0  0  0  0  0  0
  2  1  1  0  0  0  0
  3  2  2  0  0  0  0
  4  3  1  0  0  0  0
  5  4  2  0  0  0  0
  6  3  1  0  0  0  0
  7  1  1  0  0  0  0
  8  1  2  0  0  0  0
  9  1  2  0  0  0  0
 10 11  1  0  0  0  0
 11  6  2  0  0  0  0
 12 10  2  0  0  0  0
 13  7  1  0  0  0  0
 14  7  2  0  0  0  0
 15 16  2  0  0  0  0
 16 14  1  0  0  0  0
 17 13  2  0  0  0  0
 18 15  1  0  0  0  0
 19  4  1  0  0  0  0
 15 17  1  0  0  0  0
 10  5  1  0  0  0  0
M  END
>  <ID> (7179657)
7179657

>  <Supplier> (7179657)
ChemBridge

>  <clogP> (7179657)
3.250000000000000e+000

>  <RB> (7179657)
1

>  <tPSA> (7179657)
6.356999999999999e+001

>  <Hacc> (7179657)
4

>  <Hdon> (7179657)
0

>  <LogSw> (7179657)
-4.133000000000000e+000

>  <Group> (7179657)
2

$$$$
5582601
  -ISIS-  03310818222D

 19 20  0  0  0  0  0  0  0  0999 V2000
   -1.2625   -0.6167    0.0000 C   0  0  0  0  0  0  0  0  0  0  0  0
   -2.0000   -0.8375    0.0000 N   0  0  0  0  0  0  0  0  0  0  0  0
   -1.1000    0.1208    0.0000 C   0  0  0  0  0  0  0  0  0  0  0  0
   -0.3833    0.3625    0.0000 C   0  0  3  0  0  0  0  0  0  0  0  0
   -0.7000   -1.1375    0.0000 O   0  0  0  0  0  0  0  0  0  0  0  0
   -0.2000    1.0833    0.0000 C   0  0  0  0  0  0  0  0  0  0  0  0
   -2.1833   -1.6000    0.0000 C   0  0  0  0  0  0  0  0  0  0  0  0
   -2.5625   -3.0375    0.0000 C   0  0  0  0  0  0  0  0  0  0  0  0
   -2.7625   -3.7792    0.0000 Cl  0  0  0  0  0  0  0  0  0  0  0  0
   -1.6625   -2.1375    0.0000 C   0  0  0  0  0  0  0  0  0  0  0  0
   -2.9000   -1.8000    0.0000 C   0  0  0  0  0  0  0  0  0  0  0  0
   -1.8458   -2.8375    0.0000 C   0  0  0  0  0  0  0  0  0  0  0  0
   -3.1000   -2.5167    0.0000 C   0  0  0  0  0  0  0  0  0  0  0  0
    0.1792   -0.1542    0.0000 C   0  0  0  0  0  0  0  0  0  0  0  0
    0.5167    1.3208    0.0000 C   0  0  0  0  0  0  0  0  0  0  0  0
   -0.7625    1.6000    0.0000 C   0  0  0  0  0  0  0  0  0  0  0  0
   -0.5833    2.3208    0.0000 C   0  0  0  0  0  0  0  0  0  0  0  0
    0.7000    2.0458    0.0000 C   0  0  0  0  0  0  0  0  0  0  0  0
    0.1167    2.5625    0.0000 C   0  0  0  0  0  0  0  0  0  0  0  0
  2  1  1  0  0  0  0
  3  1  1  0  0  0  0
  4  3  1  0  0  0  0
  5  1  2  0  0  0  0
  6  4  1  0  0  0  0
  7  2  1  0  0  0  0
  8 13  2  0  0  0  0
  9  8  1  0  0  0  0
 10  7  1  0  0  0  0
 11  7  2  0  0  0  0
 12 10  2  0  0  0  0
 13 11  1  0  0  0  0
 14  4  1  0  0  0  0
 15  6  1  0  0  0  0
 16  6  2  0  0  0  0
 17 16  1  0  0  0  0
 18 15  2  0  0  0  0
 19 17  2  0  0  0  0
  8 12  1  0  0  0  0
 19 18  1  0  0  0  0
M  END
>  <ID> (5582601)
5582601

>  <Supplier> (5582601)
ChemBridge

>  <clogP> (5582601)
4.630000000000000e+000

>  <RB> (5582601)
4

>  <tPSA> (5582601)
2.910000000000000e+001

>  <Hacc> (5582601)
1

>  <Hdon> (5582601)
1

>  <LogSw> (5582601)
-5.151000000000000e+000

>  <Group> (5582601)
3

$$$$
7960980
  -ISIS-  03310818282D

 17 18  0  0  0  0  0  0  0  0999 V2000
    5.5792    0.7583    0.0000 C   0  0  0  0  0  0  0  0  0  0  0  0
    4.9292    0.3833    0.0000 N   0  0  0  0  0  0  0  0  0  0  0  0
    6.2625    0.4583    0.0000 N   0  0  0  0  0  0  0  0  0  0  0  0
    4.2792    0.7583    0.0000 C   0  0  0  0  0  0  0  0  0  0  0  0
    5.6542    1.5083    0.0000 S   0  0  0  0  0  0  0  0  0  0  0  0
    6.7667    1.0125    0.0000 C   0  0  0  0  0  0  0  0  0  0  0  0
    3.6292    0.3833    0.0000 C   0  0  0  0  0  0  0  0  0  0  0  0
    6.3917    1.6625    0.0000 C   0  0  0  0  0  0  0  0  0  0  0  0
    4.2792    1.5083    0.0000 O   0  0  0  0  0  0  0  0  0  0  0  0
    2.3292    0.3833    0.0000 S   0  0  0  0  0  0  0  0  0  0  0  0
    2.9792    0.7583    0.0000 C   0  0  0  0  0  0  0  0  0  0  0  0
    1.6792    0.7583    0.0000 C   0  0  0  0  0  0  0  0  0  0  0  0
    1.6792    1.5083    0.0000 C   0  0  0  0  0  0  0  0  0  0  0  0
    1.0292    0.3833    0.0000 C   0  0  0  0  0  0  0  0  0  0  0  0
    0.3792    0.7583    0.0000 C   0  0  0  0  0  0  0  0  0  0  0  0
    1.0292    1.8833    0.0000 C   0  0  0  0  0  0  0  0  0  0  0  0
    0.3792    1.5083    0.0000 C   0  0  0  0  0  0  0  0  0  0  0  0
  2  1  1  0  0  0  0
  3  1  2  0  0  0  0
  4  2  1  0  0  0  0
  5  1  1  0  0  0  0
  6  3  1  0  0  0  0
  7  4  1  0  0  0  0
  8  5  1  0  0  0  0
  9  4  2  0  0  0  0
 10 11  1  0  0  0  0
 11  7  1  0  0  0  0
 12 10  1  0  0  0  0
 13 12  1  0  0  0  0
 14 12  2  0  0  0  0
 15 14  1  0  0  0  0
 16 13  2  0  0  0  0
 17 15  2  0  0  0  0
  8  6  2  0  0  0  0
 16 17  1  0  0  0  0
M  END
>  <ID> (7960980)
7960980

>  <Supplier> (7960980)
ChemBridge

>  <clogP> (7960980)
2.804000000000000e+000

>  <RB> (7960980)
5

>  <tPSA> (7960980)
4.199000000000000e+001

>  <Hacc> (7960980)
2

>  <Hdon> (7960980)
1

>  <LogSw> (7960980)
-3.523000000000000e+000

>  <Group> (7960980)
3

>  <Core> (7960980)
520

$$$$
5582608
  -ISIS-  03310818222D

 32 35  0  0  0  0  0  0  0  0999 V2000
   -2.7500    0.7458    0.0000 N   0  0  3  0  0  0  0  0  0  0  0  0
   -2.1833    1.0125    0.0000 C   0  0  0  0  0  0  0  0  0  0  0  0
   -2.7000    0.1125    0.0000 C   0  0  0  0  0  0  0  0  0  0  0  0
   -1.7458    0.5333    0.0000 C   0  0  0  0  0  0  0  0  0  0  0  0
   -2.0708   -0.0167    0.0000 C   0  0  0  0  0  0  0  0  0  0  0  0
   -4.0333    2.7083    0.0000 N   0  3  0  0  0  0  0  0  0  0  0  0
   -3.2458    1.1708    0.0000 C   0  0  0  0  0  0  0  0  0  0  0  0
   -0.1125   -0.0167    0.0000 C   0  0  0  0  0  0  0  0  0  0  0  0
   -1.0958    0.5333    0.0000 C   0  0  0  0  0  0  0  0  0  0  0  0
   -3.3458    1.8000    0.0000 C   0  0  0  0  0  0  0  0  0  0  0  0
   -3.9458    2.0458    0.0000 C   0  0  0  0  0  0  0  0  0  0  0  0
   -0.7625   -0.0167    0.0000 C   0  0  0  0  0  0  0  0  0  0  0  0
    0.2042   -0.5792    0.0000 N   0  0  0  0  0  0  0  0  0  0  0  0
   -1.7458   -0.5792    0.0000 C   0  0  0  0  0  0  0  0  0  0  0  0
   -2.0708    1.6625    0.0000 O   0  0  0  0  0  0  0  0  0  0  0  0
   -3.2000   -0.3167    0.0000 O   0  0  0  0  0  0  0  0  0  0  0  0
   -3.5208    3.0958    0.0000 O   0  5  0  0  0  0  0  0  0  0  0  0
   -4.6333    2.9583    0.0000 O   0  0  0  0  0  0  0  0  0  0  0  0
    2.8292   -0.5792    0.0000 C   0  0  0  0  0  0  0  0  0  0  0  0
    2.1667   -0.5792    0.0000 C   0  0  0  0  0  0  0  0  0  0  0  0
    0.2042    0.5333    0.0000 O   0  0  0  0  0  0  0  0  0  0  0  0
   -1.0958   -0.5792    0.0000 C   0  0  0  0  0  0  0  0  0  0  0  0
    3.1500   -1.1375    0.0000 O   0  0  0  0  0  0  0  0  0  0  0  0
    0.8667   -0.5792    0.0000 C   0  0  0  0  0  0  0  0  0  0  0  0
    1.8500   -0.0167    0.0000 C   0  0  0  0  0  0  0  0  0  0  0  0
    1.8500   -1.1375    0.0000 C   0  0  0  0  0  0  0  0  0  0  0  0
    1.1875   -0.0167    0.0000 C   0  0  0  0  0  0  0  0  0  0  0  0
    1.1875   -1.1375    0.0000 C   0  0  0  0  0  0  0  0  0  0  0  0
   -3.7500    0.7708    0.0000 C   0  0  0  0  0  0  0  0  0  0  0  0
   -4.4708    1.6500    0.0000 C   0  0  0  0  0  0  0  0  0  0  0  0
   -4.3500    1.0125    0.0000 C   0  0  0  0  0  0  0  0  0  0  0  0
    3.1500   -0.0167    0.0000 C   0  0  0  0  0  0  0  0  0  0  0  0
  2  1  1  0  0  0  0
  3  1  1  0  0  0  0
  4  2  1  0  0  0  0
  5  3  1  0  0  0  0
  6 11  1  0  0  0  0
  7  1  1  0  0  0  0
  8 12  1  0  0  0  0
  9  4  2  0  0  0  0
 10  7  2  0  0  0  0
 11 10  1  0  0  0  0
 12  9  1  0  0  0  0
 13  8  1  0  0  0  0
 14  5  2  0  0  0  0
 15  2  2  0  0  0  0
 16  3  2  0  0  0  0
 17  6  1  0  0  0  0
 18  6  2  0  0  0  0
 19 20  1  0  0  0  0
 20 26  1  0  0  0  0
 21  8  2  0  0  0  0
 22 14  1  0  0  0  0
 23 19  2  0  0  0  0
 24 13  1  0  0  0  0
 25 27  1  0  0  0  0
 26 28  2  0  0  0  0
 27 24  2  0  0  0  0
 28 24  1  0  0  0  0
 29  7  1  0  0  0  0
 30 31  1  0  0  0  0
 31 29  2  0  0  0  0
 32 19  1  0  0  0  0
  4  5  1  0  0  0  0
 30 11  2  0  0  0  0
 22 12  2  0  0  0  0
 25 20  2  0  0  0  0
M  CHG  2   6   1  17  -1
M  END
>  <ID> (5582608)
5582608

>  <Supplier> (5582608)
ChemBridge

>  <clogP> (5582608)
3.310000000000000e+000

>  <RB> (5582608)
4

>  <tPSA> (5582608)
1.266900000000000e+002

>  <Hacc> (5582608)
6

>  <Hdon> (5582608)
1

>  <LogSw> (5582608)
-5.547000000000000e+000

>  <Group> (5582608)
1

>  <Core> (5582608)
115

$$$$
9110566
  -ISIS-  03310818292D

 25 27  0  0  0  0  0  0  0  0999 V2000
    4.3375    1.1708    0.0000 S   0  0  3  0  0  0  0  0  0  0  0  0
    6.9375    1.1708    0.0000 C   0  0  0  0  0  0  0  0  0  0  0  0
    7.5792    1.5458    0.0000 N   0  0  0  0  0  0  0  0  0  0  0  0
    3.8042    1.7000    0.0000 N   0  0  0  0  0  0  0  0  0  0  0  0
    4.9875    1.5458    0.0000 C   0  0  0  0  0  0  0  0  0  0  0  0
    6.2875    1.5458    0.0000 C   0  0  0  0  0  0  0  0  0  0  0  0
    3.7625    0.6875    0.0000 O   0  0  0  0  0  0  0  0  0  0  0  0
    4.7667    0.5583    0.0000 O   0  0  0  0  0  0  0  0  0  0  0  0
    5.6375    1.1708    0.0000 C   0  0  0  0  0  0  0  0  0  0  0  0
    8.2292    1.1708    0.0000 C   0  0  0  0  0  0  0  0  0  0  0  0
    8.2292    0.4208    0.0000 N   0  0  0  0  0  0  0  0  0  0  0  0
    6.9375    0.4208    0.0000 O   0  0  0  0  0  0  0  0  0  0  0  0
    3.0792    1.5083    0.0000 C   0  0  0  0  0  0  0  0  0  0  0  0
    4.9875    2.2958    0.0000 C   0  0  0  0  0  0  0  0  0  0  0  0
    6.2875    2.2958    0.0000 C   0  0  0  0  0  0  0  0  0  0  0  0
    5.6375    2.6708    0.0000 C   0  0  0  0  0  0  0  0  0  0  0  0
    8.8792    0.0458    0.0000 C   0  0  0  0  0  0  0  0  0  0  0  0
    8.8792    1.5458    0.0000 C   0  0  0  0  0  0  0  0  0  0  0  0
    2.5542    2.0375    0.0000 C   0  0  0  0  0  0  0  0  0  0  0  0
    2.8875    0.7833    0.0000 C   0  0  0  0  0  0  0  0  0  0  0  0
    9.5292    0.4208    0.0000 C   0  0  0  0  0  0  0  0  0  0  0  0
    9.5292    1.1708    0.0000 C   0  0  0  0  0  0  0  0  0  0  0  0
    2.1625    0.5875    0.0000 C   0  0  0  0  0  0  0  0  0  0  0  0
    1.8292    1.8458    0.0000 C   0  0  0  0  0  0  0  0  0  0  0  0
    1.6292    1.1208    0.0000 C   0  0  0  0  0  0  0  0  0  0  0  0
  2  6  1  0  0  0  0
  3  2  1  0  0  0  0
  4  1  1  0  0  0  0
  5  1  1  0  0  0  0
  6  9  1  0  0  0  0
  7  1  2  0  0  0  0
  8  1  2  0  0  0  0
  9  5  2  0  0  0  0
 10  3  1  0  0  0  0
 11 10  2  0  0  0  0
 12  2  2  0  0  0  0
 13  4  1  0  0  0  0
 14  5  1  0  0  0  0
 15 16  1  0  0  0  0
 16 14  2  0  0  0  0
 17 11  1  0  0  0  0
 18 10  1  0  0  0  0
 19 13  2  0  0  0  0
 20 13  1  0  0  0  0
 21 22  1  0  0  0  0
 22 18  2  0  0  0  0
 23 20  2  0  0  0  0
 24 19  1  0  0  0  0
 25 23  1  0  0  0  0
 15  6  2  0  0  0  0
 25 24  2  0  0  0  0
 17 21  2  0  0  0  0
M  END
>  <ID> (9110566)
9110566

>  <Supplier> (9110566)
ChemBridge

>  <clogP> (9110566)
2.853000000000000e+000

>  <RB> (9110566)
4

>  <tPSA> (9110566)
8.816000000000004e+001

>  <Hacc> (9110566)
4

>  <Hdon> (9110566)
2

>  <LogSw> (9110566)
-4.213000000000000e+000

>  <Group> (9110566)
2

>  <Core> (9110566)
272

$$$$
9080819
  -ISIS-  03310818292D

 25 27  0  0  0  0  0  0  0  0999 V2000
    5.2875    3.2333    0.0000 C   0  0  0  0  0  0  0  0  0  0  0  0
    4.5375    3.2333    0.0000 N   0  0  0  0  0  0  0  0  0  0  0  0
    4.1625    3.8833    0.0000 C   0  0  0  0  0  0  0  0  0  0  0  0
    5.6625    2.5833    0.0000 C   0  0  0  0  0  0  0  0  0  0  0  0
    5.2875    1.9333    0.0000 N   0  0  3  0  0  0  0  0  0  0  0  0
    5.6625    3.8833    0.0000 C   0  0  0  0  0  0  0  0  0  0  0  0
    3.4125    3.8833    0.0000 C   0  0  0  0  0  0  0  0  0  0  0  0
    6.4125    2.5833    0.0000 C   0  0  0  0  0  0  0  0  0  0  0  0
    4.5375    4.5292    0.0000 O   0  0  0  0  0  0  0  0  0  0  0  0
    4.5375    0.6375    0.0000 O   0  0  0  0  0  0  0  0  0  0  0  0
    3.0375    4.5292    0.0000 C   0  0  0  0  0  0  0  0  0  0  0  0
    3.0375    3.2333    0.0000 C   0  0  0  0  0  0  0  0  0  0  0  0
    6.4125    3.8833    0.0000 C   0  0  0  0  0  0  0  0  0  0  0  0
    6.7875    3.2333    0.0000 C   0  0  0  0  0  0  0  0  0  0  0  0
    1.9125    3.8833    0.0000 C   0  0  0  0  0  0  0  0  0  0  0  0
    2.2875    4.5292    0.0000 C   0  0  0  0  0  0  0  0  0  0  0  0
    2.2875    3.2333    0.0000 C   0  0  0  0  0  0  0  0  0  0  0  0
    5.6625    1.2875    0.0000 C   0  0  0  0  0  0  0  0  0  0  0  0
    4.5375    1.9333    0.0000 C   0  0  0  0  0  0  0  0  0  0  0  0
    6.7875    4.5292    0.0000 O   0  0  0  0  0  0  0  0  0  0  0  0
    1.1625    3.8833    0.0000 O   0  0  0  0  0  0  0  0  0  0  0  0
    5.2875    0.6375    0.0000 C   0  0  0  0  0  0  0  0  0  0  0  0
    4.1625    1.2875    0.0000 C   0  0  0  0  0  0  0  0  0  0  0  0
    0.7875    3.2333    0.0000 C   0  0  0  0  0  0  0  0  0  0  0  0
    7.5375    4.5292    0.0000 C   0  0  0  0  0  0  0  0  0  0  0  0
  2  1  1  0  0  0  0
  3  2  1  0  0  0  0
  4  1  2  0  0  0  0
  5  4  1  0  0  0  0
  6  1  1  0  0  0  0
  7  3  1  0  0  0  0
  8  4  1  0  0  0  0
  9  3  2  0  0  0  0
 10 23  1  0  0  0  0
 11  7  2  0  0  0  0
 12  7  1  0  0  0  0
 13  6  2  0  0  0  0
 14 13  1  0  0  0  0
 15 17  1  0  0  0  0
 16 11  1  0  0  0  0
 17 12  2  0  0  0  0
 18  5  1  0  0  0  0
 19  5  1  0  0  0  0
 20 13  1  0  0  0  0
 21 15  1  0  0  0  0
 22 18  1  0  0  0  0
 23 19  1  0  0  0  0
 24 21  1  0  0  0  0
 25 20  1  0  0  0  0
 14  8  2  0  0  0  0
 10 22  1  0  0  0  0
 16 15  2  0  0  0  0
M  END
>  <ID> (9080819)
9080819

>  <Supplier> (9080819)
ChemBridge

>  <clogP> (9080819)
2.698000000000000e+000

>  <RB> (9080819)
3

>  <tPSA> (9080819)
6.003000000000000e+001

>  <Hacc> (9080819)
4

>  <Hdon> (9080819)
1

>  <LogSw> (9080819)
-4.001000000000000e+000

>  <Group> (9080819)
2

>  <Core> (9080819)
511

$$$$
7972549
  -ISIS-  03310818282D

 20 20  0  0  0  0  0  0  0  0999 V2000
    1.4625    1.6708    0.0000 C   0  0  0  0  0  0  0  0  0  0  0  0
    1.4625    0.9208    0.0000 C   0  0  0  0  0  0  0  0  0  0  0  0
    0.7500    1.9000    0.0000 O   0  0  0  0  0  0  0  0  0  0  0  0
    0.7500    0.6875    0.0000 O   0  0  0  0  0  0  0  0  0  0  0  0
    0.3042    1.2958    0.0000 C   0  0  0  0  0  0  0  0  0  0  0  0
    2.1125    2.0458    0.0000 C   0  0  0  0  0  0  0  0  0  0  0  0
    4.0625    1.6708    0.0000 N   0  0  0  0  0  0  0  0  0  0  0  0
    4.7125    2.0458    0.0000 C   0  0  3  0  0  0  0  0  0  0  0  0
    2.1125    0.5458    0.0000 C   0  0  0  0  0  0  0  0  0  0  0  0
    5.9667    1.7083    0.0000 C   0  0  3  0  0  0  0  0  0  0  0  0
    5.2417    1.5125    0.0000 C   0  0  0  0  0  0  0  0  0  0  0  0
    2.7625    1.6708    0.0000 C   0  0  0  0  0  0  0  0  0  0  0  0
    3.4125    2.0458    0.0000 C   0  0  0  0  0  0  0  0  0  0  0  0
    2.7625    0.9208    0.0000 C   0  0  0  0  0  0  0  0  0  0  0  0
    7.3917    0.5458    0.0000 Cl  0  0  0  0  0  0  0  0  0  0  0  0
    4.2792    2.6583    0.0000 C   0  0  0  0  0  0  0  0  0  0  0  0
    5.2875    2.5250    0.0000 C   0  0  0  0  0  0  0  0  0  0  0  0
    6.3417    1.0583    0.0000 C   0  0  0  0  0  0  0  0  0  0  0  0
    6.6417    2.0250    0.0000 C   0  0  0  0  0  0  0  0  0  0  0  0
    5.7042    2.4125    0.0000 C   0  0  0  0  0  0  0  0  0  0  0  0
  2  1  1  0  0  0  0
  3  1  1  0  0  0  0
  4  2  1  0  0  0  0
  5  3  1  0  0  0  0
  6  1  2  0  0  0  0
  7 13  1  0  0  0  0
  8  7  1  0  0  0  0
  9  2  2  0  0  0  0
 10 11  1  0  0  0  0
 11  8  1  0  0  0  0
 12  6  1  0  0  0  0
 13 12  1  0  0  0  0
 14 12  2  0  0  0  0
 16  8  1  0  0  0  0
 17  8  1  0  0  0  0
 18 10  1  0  0  0  0
 19 10  1  0  0  0  0
 20 10  1  0  0  0  0
  5  4  1  0  0  0  0
  9 14  1  0  0  0  0
M  END
>  <ID> (7972549)
7972549

>  <Supplier> (7972549)
ChemBridge

>  <clogP> (7972549)
4.167999999999990e+000

>  <RB> (7972549)
5

>  <tPSA> (7972549)
3.049000000000000e+001

>  <Hacc> (7972549)
3

>  <Hdon> (7972549)
1

>  <LogSw> (7972549)
-3.673000000000000e+000

>  <Group> (7972549)
1

$$$$
7972548
  -ISIS-  03310818282D

 25 28  0  0  0  0  0  0  0  0999 V2000
    8.1292    2.8708    0.0000 N   0  0  3  0  0  0  0  0  0  0  0  0
    7.7542    3.5208    0.0000 C   0  0  0  0  0  0  0  0  0  0  0  0
    7.6250    2.3083    0.0000 N   0  0  0  0  0  0  0  0  0  0  0  0
    7.0167    3.3625    0.0000 S   0  0  0  0  0  0  0  0  0  0  0  0
    6.9417    2.6208    0.0000 C   0  0  0  0  0  0  0  0  0  0  0  0
    8.2542    4.0667    0.0000 N   0  0  0  0  0  0  0  0  0  0  0  0
    8.8625    3.0250    0.0000 C   0  0  0  0  0  0  0  0  0  0  0  0
    8.9375    3.7708    0.0000 N   0  0  0  0  0  0  0  0  0  0  0  0
    3.6917    2.2458    0.0000 C   0  0  0  0  0  0  0  0  0  0  0  0
    4.3417    2.6208    0.0000 N   0  0  0  0  0  0  0  0  0  0  0  0
    6.2917    2.2458    0.0000 C   0  0  0  0  0  0  0  0  0  0  0  0
    3.0417    2.6208    0.0000 C   0  0  0  0  0  0  0  0  0  0  0  0
    4.9917    2.2458    0.0000 C   0  0  0  0  0  0  0  0  0  0  0  0
    5.6417    2.6208    0.0000 C   0  0  0  0  0  0  0  0  0  0  0  0
    3.6917    1.4958    0.0000 O   0  0  0  0  0  0  0  0  0  0  0  0
    3.0417    3.3708    0.0000 C   0  0  0  0  0  0  0  0  0  0  0  0
    2.3917    2.2458    0.0000 C   0  0  0  0  0  0  0  0  0  0  0  0
    1.7417    3.3708    0.0000 C   0  0  0  0  0  0  0  0  0  0  0  0
    2.3917    3.7458    0.0000 C   0  0  0  0  0  0  0  0  0  0  0  0
    1.7417    2.6208    0.0000 C   0  0  0  0  0  0  0  0  0  0  0  0
    9.4167    2.5208    0.0000 C   0  0  0  0  0  0  0  0  0  0  0  0
    1.0917    3.7458    0.0000 Br  0  0  0  0  0  0  0  0  0  0  0  0
    6.2917    1.4958    0.0000 C   0  0  0  0  0  0  0  0  0  0  0  0
    5.6417    1.1208    0.0000 C   0  0  0  0  0  0  0  0  0  0  0  0
    4.9917    1.4958    0.0000 C   0  0  0  0  0  0  0  0  0  0  0  0
  2  1  1  0  0  0  0
  3  1  1  0  0  0  0
  4  2  1  0  0  0  0
  5  3  2  0  0  0  0
  6  2  2  0  0  0  0
  7  1  1  0  0  0  0
  8  7  2  0  0  0  0
  9 10  1  0  0  0  0
 10 13  1  0  0  0  0
 11  5  1  0  0  0  0
 12  9  1  0  0  0  0
 13 14  1  0  0  0  0
 14 11  2  0  0  0  0
 15  9  2  0  0  0  0
 16 12  2  0  0  0  0
 17 12  1  0  0  0  0
 18 20  1  0  0  0  0
 19 16  1  0  0  0  0
 20 17  2  0  0  0  0
 21  7  1  0  0  0  0
 22 18  1  0  0  0  0
 23 11  1  0  0  0  0
 24 23  2  0  0  0  0
 25 24  1  0  0  0  0
  6  8  1  0  0  0  0
  5  4  1  0  0  0  0
 25 13  2  0  0  0  0
 18 19  2  0  0  0  0
M  END
>  <ID> (7972548)
7972548

>  <Supplier> (7972548)
ChemBridge

>  <clogP> (7972548)
3.834000000000000e+000

>  <RB> (7972548)
3

>  <tPSA> (7972548)
7.218000000000001e+001

>  <Hacc> (7972548)
4

>  <Hdon> (7972548)
1

>  <LogSw> (7972548)
-5.494000000000000e+000

>  <Group> (7972548)
1

>  <Core> (7972548)
267

$$$$
7972547
  -ISIS-  03310818282D

 34 36  0  0  0  0  0  0  0  0999 V2000
    1.7917    2.7958    0.0000 S   0  0  3  0  0  0  0  0  0  0  0  0
    1.0667    2.6000    0.0000 N   0  0  3  0  0  0  0  0  0  0  0  0
    1.7917    3.5458    0.0000 C   0  0  0  0  0  0  0  0  0  0  0  0
    0.5375    3.1333    0.0000 C   0  0  0  0  0  0  0  0  0  0  0  0
   -0.1875    2.9375    0.0000 C   0  0  0  0  0  0  0  0  0  0  0  0
    2.4417    3.9208    0.0000 C   0  0  0  0  0  0  0  0  0  0  0  0
    1.9250    2.0583    0.0000 O   0  0  0  0  0  0  0  0  0  0  0  0
    2.5417    2.8583    0.0000 O   0  0  0  0  0  0  0  0  0  0  0  0
    2.4417    4.6667    0.0000 C   0  0  0  0  0  0  0  0  0  0  0  0
    0.8750    1.8750    0.0000 C   0  0  0  0  0  0  0  0  0  0  0  0
   -0.7208    3.4708    0.0000 N   0  0  0  0  0  0  0  0  0  0  0  0
   -2.6958    3.6083    0.0000 C   0  0  0  0  0  0  0  0  0  0  0  0
   -3.2250    4.1292    0.0000 C   0  0  0  0  0  0  0  0  0  0  0  0
    1.7917    5.0417    0.0000 C   0  0  0  0  0  0  0  0  0  0  0  0
   -1.9708    3.8083    0.0000 C   0  0  0  0  0  0  0  0  0  0  0  0
    1.1417    3.9208    0.0000 C   0  0  0  0  0  0  0  0  0  0  0  0
   -1.4458    3.2708    0.0000 C   0  0  0  0  0  0  0  0  0  0  0  0
   -0.3833    2.2125    0.0000 O   0  0  0  0  0  0  0  0  0  0  0  0
   -3.9583    3.9458    0.0000 O   0  0  0  0  0  0  0  0  0  0  0  0
    1.1417    4.6667    0.0000 C   0  0  0  0  0  0  0  0  0  0  0  0
    0.1500    1.6833    0.0000 C   0  0  0  0  0  0  0  0  0  0  0  0
    1.4042    1.3458    0.0000 C   0  0  0  0  0  0  0  0  0  0  0  0
    0.4875    0.4250    0.0000 C   0  0  0  0  0  0  0  0  0  0  0  0
    3.0917    5.0417    0.0000 O   0  0  0  0  0  0  0  0  0  0  0  0
    1.2125    0.6208    0.0000 C   0  0  0  0  0  0  0  0  0  0  0  0
   -0.0458    0.9583    0.0000 C   0  0  0  0  0  0  0  0  0  0  0  0
    0.2917   -0.2917    0.0000 Cl  0  0  0  0  0  0  0  0  0  0  0  0
    1.7917    5.7917    0.0000 O   0  0  0  0  0  0  0  0  0  0  0  0
   -2.8958    2.8833    0.0000 C   0  0  0  0  0  0  0  0  0  0  0  0
   -2.3583    2.3583    0.0000 C   0  0  0  0  0  0  0  0  0  0  0  0
   -1.6333    2.5500    0.0000 C   0  0  0  0  0  0  0  0  0  0  0  0
   -3.0333    4.8542    0.0000 C   0  0  0  0  0  0  0  0  0  0  0  0
    3.7417    4.6667    0.0000 C   0  0  0  0  0  0  0  0  0  0  0  0
    1.1417    6.1667    0.0000 C   0  0  0  0  0  0  0  0  0  0  0  0
  2  1  1  0  0  0  0
  3  1  1  0  0  0  0
  4  2  1  0  0  0  0
  5  4  1  0  0  0  0
  6  3  1  0  0  0  0
  7  1  2  0  0  0  0
  8  1  2  0  0  0  0
  9  6  2  0  0  0  0
 10  2  1  0  0  0  0
 11  5  1  0  0  0  0
 12 15  2  0  0  0  0
 13 12  1  0  0  0  0
 14 20  2  0  0  0  0
 15 17  1  0  0  0  0
 16  3  2  0  0  0  0
 17 11  1  0  0  0  0
 18  5  2  0  0  0  0
 19 13  2  0  0  0  0
 20 16  1  0  0  0  0
 21 10  1  0  0  0  0
 22 10  2  0  0  0  0
 23 25  2  0  0  0  0
 24  9  1  0  0  0  0
 25 22  1  0  0  0  0
 26 21  2  0  0  0  0
 27 23  1  0  0  0  0
 28 14  1  0  0  0  0
 29 30  2  0  0  0  0
 30 31  1  0  0  0  0
 31 17  2  0  0  0  0
 32 13  1  0  0  0  0
 33 24  1  0  0  0  0
 34 28  1  0  0  0  0
 14  9  1  0  0  0  0
 23 26  1  0  0  0  0
 12 29  1  0  0  0  0
M  END
>  <ID> (7972547)
7972547

>  <Supplier> (7972547)
ChemBridge

>  <clogP> (7972547)
4.416000000000000e+000

>  <RB> (7972547)
6

>  <tPSA> (7972547)
1.020100000000000e+002

>  <Hacc> (7972547)
6

>  <Hdon> (7972547)
1

>  <LogSw> (7972547)
-6.637000000000000e+000

>  <Group> (7972547)
1

>  <Core> (7972547)
084

$$$$
7972544
  -ISIS-  03310818282D

 25 27  0  0  0  0  0  0  0  0999 V2000
    4.2667    2.2500    0.0000 C   0  0  0  0  0  0  0  0  0  0  0  0
    4.9167    2.6250    0.0000 C   0  0  0  0  0  0  0  0  0  0  0  0
    4.1125    1.5208    0.0000 C   0  0  0  0  0  0  0  0  0  0  0  0
    3.3667    1.4375    0.0000 C   0  0  0  0  0  0  0  0  0  0  0  0
    3.6167    2.6250    0.0000 C   0  0  0  0  0  0  0  0  0  0  0  0
    3.0625    2.1250    0.0000 S   0  0  0  0  0  0  0  0  0  0  0  0
    5.5667    2.2500    0.0000 S   0  0  0  0  0  0  0  0  0  0  0  0
    6.8667    2.2500    0.0000 C   0  0  0  0  0  0  0  0  0  0  0  0
    4.9167    3.3750    0.0000 N   0  0  0  0  0  0  0  0  0  0  0  0
    3.6167    3.3750    0.0000 N   0  0  0  0  0  0  0  0  0  0  0  0
    6.2167    2.6250    0.0000 C   0  0  3  0  0  0  0  0  0  0  0  0
    4.6167    0.9583    0.0000 C   0  0  0  0  0  0  0  0  0  0  0  0
    4.2667    3.7500    0.0000 C   0  0  0  0  0  0  0  0  0  0  0  0
    7.5167    2.6250    0.0000 O   0  0  0  0  0  0  0  0  0  0  0  0
    6.8667    1.5000    0.0000 O   0  0  0  0  0  0  0  0  0  0  0  0
    4.3792    0.2458    0.0000 C   0  0  0  0  0  0  0  0  0  0  0  0
    5.3500    1.1208    0.0000 C   0  0  0  0  0  0  0  0  0  0  0  0
    5.6167   -0.1542    0.0000 C   0  0  0  0  0  0  0  0  0  0  0  0
    5.8500    0.5583    0.0000 C   0  0  0  0  0  0  0  0  0  0  0  0
    4.8875   -0.3125    0.0000 C   0  0  0  0  0  0  0  0  0  0  0  0
    6.1167   -0.7125    0.0000 Br  0  0  0  0  0  0  0  0  0  0  0  0
    8.1667    2.2500    0.0000 C   0  0  3  0  0  0  0  0  0  0  0  0
    6.2167    3.3750    0.0000 C   0  0  0  0  0  0  0  0  0  0  0  0
    8.8167    2.6250    0.0000 C   0  0  0  0  0  0  0  0  0  0  0  0
    8.1667    1.5000    0.0000 C   0  0  0  0  0  0  0  0  0  0  0  0
  2  1  1  0  0  0  0
  3  1  1  0  0  0  0
  4  3  2  0  0  0  0
  5  1  2  0  0  0  0
  6  5  1  0  0  0  0
  7  2  1  0  0  0  0
  8 11  1  0  0  0  0
  9  2  2  0  0  0  0
 10  5  1  0  0  0  0
 11  7  1  0  0  0  0
 12  3  1  0  0  0  0
 13 10  2  0  0  0  0
 14  8  1  0  0  0  0
 15  8  2  0  0  0  0
 16 12  2  0  0  0  0
 17 12  1  0  0  0  0
 18 19  1  0  0  0  0
 19 17  2  0  0  0  0
 20 16  1  0  0  0  0
 21 18  1  0  0  0  0
 22 14  1  0  0  0  0
 23 11  1  0  0  0  0
 24 22  1  0  0  0  0
 25 22  1  0  0  0  0
  4  6  1  0  0  0  0
 13  9  1  0  0  0  0
 18 20  2  0  0  0  0
M  END
>  <ID> (7972544)
7972544

>  <Supplier> (7972544)
ChemBridge

>  <clogP> (7972544)
5.990000000000000e+000

>  <RB> (7972544)
5

>  <tPSA> (7972544)
5.208000000000000e+001

>  <Hacc> (7972544)
4

>  <Hdon> (7972544)
0

>  <LogSw> (7972544)
-7.504000000000000e+000

>  <Group> (7972544)
2

>  <Core> (7972544)
024

$$$$
7972543
  -ISIS-  03310818282D

 32 35  0  0  0  0  0  0  0  0999 V2000
    6.7417    2.3333    0.0000 N   0  0  0  0  0  0  0  0  0  0  0  0
    7.1875    2.9333    0.0000 C   0  0  0  0  0  0  0  0  0  0  0  0
    4.8917    0.9333    0.0000 C   0  0  0  0  0  0  0  0  0  0  0  0
    6.0292    2.5583    0.0000 C   0  0  0  0  0  0  0  0  0  0  0  0
    6.7417    3.5458    0.0000 N   0  0  0  0  0  0  0  0  0  0  0  0
    5.5042    1.3708    0.0000 N   0  0  3  0  0  0  0  0  0  0  0  0
    4.2125    1.2333    0.0000 C   0  0  3  0  0  0  0  0  0  0  0  0
    6.0292    3.3083    0.0000 O   0  0  0  0  0  0  0  0  0  0  0  0
    5.4250    2.1208    0.0000 C   0  0  0  0  0  0  0  0  0  0  0  0
    3.7375    0.6500    0.0000 O   0  0  0  0  0  0  0  0  0  0  0  0
    4.9750    0.1833    0.0000 O   0  0  0  0  0  0  0  0  0  0  0  0
    7.9375    2.9333    0.0000 C   0  0  0  0  0  0  0  0  0  0  0  0
    6.1875    1.0708    0.0000 C   0  0  3  0  0  0  0  0  0  0  0  0
    3.0000    0.7708    0.0000 C   0  0  0  0  0  0  0  0  0  0  0  0
    1.5167    1.0083    0.0000 C   0  0  0  0  0  0  0  0  0  0  0  0
    0.7750    1.1208    0.0000 Cl  0  0  0  0  0  0  0  0  0  0  0  0
    2.5250    0.1875    0.0000 C   0  0  0  0  0  0  0  0  0  0  0  0
    2.7292    1.4708    0.0000 C   0  0  0  0  0  0  0  0  0  0  0  0
    1.9875    1.5875    0.0000 C   0  0  0  0  0  0  0  0  0  0  0  0
    1.7875    0.3083    0.0000 C   0  0  0  0  0  0  0  0  0  0  0  0
    4.5750    1.8958    0.0000 C   0  0  0  0  0  0  0  0  0  0  0  0
    3.5875    1.6583    0.0000 C   0  0  0  0  0  0  0  0  0  0  0  0
    8.3125    2.2833    0.0000 C   0  0  0  0  0  0  0  0  0  0  0  0
    8.3125    3.5833    0.0000 C   0  0  0  0  0  0  0  0  0  0  0  0
    6.2667    0.3208    0.0000 C   0  0  0  0  0  0  0  0  0  0  0  0
    6.7917    1.5083    0.0000 C   0  0  0  0  0  0  0  0  0  0  0  0
    9.0625    3.5833    0.0000 C   0  0  0  0  0  0  0  0  0  0  0  0
    9.0625    2.2833    0.0000 C   0  0  0  0  0  0  0  0  0  0  0  0
    6.9500    0.0208    0.0000 C   0  0  0  0  0  0  0  0  0  0  0  0
    7.4792    1.2000    0.0000 C   0  0  0  0  0  0  0  0  0  0  0  0
    9.4375    2.9333    0.0000 C   0  0  0  0  0  0  0  0  0  0  0  0
    7.5542    0.4583    0.0000 C   0  0  0  0  0  0  0  0  0  0  0  0
  2  1  1  0  0  0  0
  3  6  1  0  0  0  0
  4  1  2  0  0  0  0
  5  2  2  0  0  0  0
  6  9  1  0  0  0  0
  7  3  1  0  0  0  0
  8  4  1  0  0  0  0
  9  4  1  0  0  0  0
 10  7  1  0  0  0  0
 11  3  2  0  0  0  0
 12  2  1  0  0  0  0
 13  6  1  0  0  0  0
 14 10  1  0  0  0  0
 15 19  1  0  0  0  0
 16 15  1  0  0  0  0
 17 14  2  0  0  0  0
 18 14  1  0  0  0  0
 19 18  2  0  0  0  0
 20 17  1  0  0  0  0
 21  7  1  0  0  0  0
 22  7  1  0  0  0  0
 23 12  2  0  0  0  0
 24 12  1  0  0  0  0
 25 13  1  0  0  0  0
 26 13  1  0  0  0  0
 27 24  2  0  0  0  0
 28 23  1  0  0  0  0
 29 25  1  0  0  0  0
 30 26  1  0  0  0  0
 31 27  1  0  0  0  0
 32 30  1  0  0  0  0
  8  5  1  0  0  0  0
 28 31  2  0  0  0  0
 29 32  1  0  0  0  0
 20 15  2  0  0  0  0
M  END
>  <ID> (7972543)
7972543

>  <Supplier> (7972543)
ChemBridge

>  <clogP> (7972543)
5.908000000000000e+000

>  <RB> (7972543)
7

>  <tPSA> (7972543)
6.845999999999998e+001

>  <Hacc> (7972543)
5

>  <Hdon> (7972543)
0

>  <LogSw> (7972543)
-7.553999999999999e+000

>  <Group> (7972543)
1

>  <Core> (7972543)
204

$$$$
7102707
  -ISIS-  03310818252D

 25 28  0  0  0  0  0  0  0  0999 V2000
    3.0417   -0.5917    0.0000 N   0  0  3  0  0  0  0  0  0  0  0  0
    2.7792   -1.3792    0.0000 C   0  0  0  0  0  0  0  0  0  0  0  0
    2.3667   -0.1042    0.0000 C   0  0  0  0  0  0  0  0  0  0  0  0
    1.7042   -0.5917    0.0000 C   0  0  0  0  0  0  0  0  0  0  0  0
    1.9542   -1.3792    0.0000 S   0  0  0  0  0  0  0  0  0  0  0  0
    0.3042   -0.8917    0.0000 C   0  0  0  0  0  0  0  0  0  0  0  0
    0.9250   -0.3375    0.0000 C   0  0  0  0  0  0  0  0  0  0  0  0
   -0.5000   -0.7167    0.0000 C   0  0  0  0  0  0  0  0  0  0  0  0
   -0.9208   -1.4292    0.0000 N   0  0  0  0  0  0  0  0  0  0  0  0
   -0.3708   -2.0500    0.0000 N   0  0  0  0  0  0  0  0  0  0  0  0
    3.8292   -0.3375    0.0000 C   0  0  0  0  0  0  0  0  0  0  0  0
    3.2667   -2.0417    0.0000 S   0  0  0  0  0  0  0  0  0  0  0  0
    0.3917   -1.7125    0.0000 C   0  0  0  0  0  0  0  0  0  0  0  0
    2.3667    0.7208    0.0000 O   0  0  0  0  0  0  0  0  0  0  0  0
   -0.8375    0.0458    0.0000 C   0  0  0  0  0  0  0  0  0  0  0  0
    4.3500   -1.7042    0.0000 O   0  0  0  0  0  0  0  0  0  0  0  0
    4.4375   -0.8917    0.0000 C   0  0  3  0  0  0  0  0  0  0  0  0
    5.1042   -2.0417    0.0000 C   0  0  0  0  0  0  0  0  0  0  0  0
   -1.6625    0.1333    0.0000 C   0  0  0  0  0  0  0  0  0  0  0  0
   -0.3500    0.7208    0.0000 C   0  0  0  0  0  0  0  0  0  0  0  0
    5.2417   -0.7167    0.0000 C   0  0  0  0  0  0  0  0  0  0  0  0
    5.6542   -1.4292    0.0000 C   0  0  0  0  0  0  0  0  0  0  0  0
   -2.0000    0.8875    0.0000 C   0  0  0  0  0  0  0  0  0  0  0  0
   -0.6875    1.4708    0.0000 C   0  0  0  0  0  0  0  0  0  0  0  0
   -1.5083    1.5583    0.0000 C   0  0  0  0  0  0  0  0  0  0  0  0
  2  1  1  0  0  0  0
  3  1  1  0  0  0  0
  4  3  1  0  0  0  0
  5  2  1  0  0  0  0
  6  7  1  0  0  0  0
  7  4  2  0  0  0  0
  8  6  1  0  0  0  0
  9  8  2  0  0  0  0
 10 13  1  0  0  0  0
 11  1  1  0  0  0  0
 12  2  2  0  0  0  0
 13  6  2  0  0  0  0
 14  3  2  0  0  0  0
 15  8  1  0  0  0  0
 16 17  1  0  0  0  0
 17 11  1  0  0  0  0
 18 16  1  0  0  0  0
 19 15  2  0  0  0  0
 20 15  1  0  0  0  0
 21 17  1  0  0  0  0
 22 21  1  0  0  0  0
 23 19  1  0  0  0  0
 24 20  2  0  0  0  0
 25 24  1  0  0  0  0
  4  5  1  0  0  0  0
 18 22  1  0  0  0  0
 10  9  1  0  0  0  0
 23 25  2  0  0  0  0
M  END
>  <ID> (7102707)
7102707

>  <Supplier> (7102707)
ChemBridge

>  <clogP> (7102707)
2.550000000000000e+000

>  <RB> (7102707)
4

>  <tPSA> (7102707)
5.821999999999999e+001

>  <Hacc> (7102707)
3

>  <Hdon> (7102707)
1

>  <LogSw> (7102707)
-4.086000000000000e+000

>  <Group> (7102707)
2

>  <Core> (7102707)
001

$$$$
7102704
  -ISIS-  03310818252D

 30 33  0  0  0  0  0  0  0  0999 V2000
    5.4417   -2.3375    0.0000 C   0  0  0  0  0  0  0  0  0  0  0  0
    4.7250   -1.9250    0.0000 C   0  0  0  0  0  0  0  0  0  0  0  0
    6.1667   -1.0917    0.0000 C   0  0  0  0  0  0  0  0  0  0  0  0
    6.1667   -1.9292    0.0000 C   0  0  0  0  0  0  0  0  0  0  0  0
    4.7292   -1.0917    0.0000 C   0  0  0  0  0  0  0  0  0  0  0  0
    5.4417   -0.6667    0.0000 O   0  0  0  0  0  0  0  0  0  0  0  0
    4.0125   -2.3292    0.0000 C   0  0  0  0  0  0  0  0  0  0  0  0
    4.0167   -3.1542    0.0000 O   0  0  0  0  0  0  0  0  0  0  0  0
    4.0125   -0.6792    0.0000 C   0  0  0  0  0  0  0  0  0  0  0  0
    2.5792   -3.1542    0.0000 C   0  0  0  0  0  0  0  0  0  0  0  0
    3.3000   -1.9167    0.0000 C   0  0  0  0  0  0  0  0  0  0  0  0
    6.8792   -0.6792    0.0000 O   0  0  0  0  0  0  0  0  0  0  0  0
    1.8667   -3.5625    0.0000 C   0  0  0  0  0  0  0  0  0  0  0  0
    0.4292   -4.3792    0.0000 C   0  0  0  0  0  0  0  0  0  0  0  0
    3.3000   -3.5667    0.0000 C   0  0  0  0  0  0  0  0  0  0  0  0
    3.3000   -1.0917    0.0000 C   0  0  0  0  0  0  0  0  0  0  0  0
    2.5875   -2.3250    0.0000 O   0  0  0  0  0  0  0  0  0  0  0  0
    1.1542   -3.1500    0.0000 C   0  0  0  0  0  0  0  0  0  0  0  0
    1.8625   -4.3917    0.0000 C   0  0  0  0  0  0  0  0  0  0  0  0
    0.4375   -3.5542    0.0000 C   0  0  0  0  0  0  0  0  0  0  0  0
    1.1417   -4.8042    0.0000 C   0  0  0  0  0  0  0  0  0  0  0  0
   -0.2875   -4.7917    0.0000 C   0  0  0  0  0  0  0  0  0  0  0  0
    5.4417   -3.1542    0.0000 C   0  0  0  0  0  0  0  0  0  0  0  0
    6.8750   -2.3375    0.0000 C   0  0  0  0  0  0  0  0  0  0  0  0
    2.5875   -0.6792    0.0000 C   0  0  0  0  0  0  0  0  0  0  0  0
   -0.9958   -4.3667    0.0000 C   0  0  0  0  0  0  0  0  0  0  0  0
   -0.2875   -5.6125    0.0000 C   0  0  0  0  0  0  0  0  0  0  0  0
   -1.0000   -6.0167    0.0000 C   0  0  0  0  0  0  0  0  0  0  0  0
   -1.7125   -4.7792    0.0000 C   0  0  0  0  0  0  0  0  0  0  0  0
   -1.7208   -5.6042    0.0000 C   0  0  0  0  0  0  0  0  0  0  0  0
  2  1  1  0  0  0  0
  3  4  1  0  0  0  0
  4  1  2  0  0  0  0
  5  2  1  0  0  0  0
  6  3  1  0  0  0  0
  7  2  2  0  0  0  0
  8  7  1  0  0  0  0
  9  5  2  0  0  0  0
 10 15  1  0  0  0  0
 11  7  1  0  0  0  0
 12  3  2  0  0  0  0
 13 10  1  0  0  0  0
 14 21  1  0  0  0  0
 15  8  1  0  0  0  0
 16 11  2  0  0  0  0
 17 10  2  0  0  0  0
 18 13  2  0  0  0  0
 19 13  1  0  0  0  0
 20 18  1  0  0  0  0
 21 19  2  0  0  0  0
 22 14  1  0  0  0  0
 23  1  1  0  0  0  0
 24  4  1  0  0  0  0
 25 16  1  0  0  0  0
 26 22  2  0  0  0  0
 27 22  1  0  0  0  0
 28 27  2  0  0  0  0
 29 26  1  0  0  0  0
 30 28  1  0  0  0  0
  5  6  1  0  0  0  0
  9 16  1  0  0  0  0
 20 14  2  0  0  0  0
 29 30  2  0  0  0  0
M  END
>  <ID> (7102704)
7102704

>  <Supplier> (7102704)
ChemBridge

>  <clogP> (7102704)
6.030000000000000e+000

>  <RB> (7102704)
5

>  <tPSA> (7102704)
5.651000000000000e+001

>  <Hacc> (7102704)
4

>  <Hdon> (7102704)
0

>  <LogSw> (7102704)
-7.254000000000000e+000

>  <Group> (7102704)
1

>  <Core> (7102704)
076

$$$$
6444165
  -ISIS-  03310818242D

 24 25  0  0  0  0  0  0  0  0999 V2000
   -4.2333    1.4958    0.0000 C   0  0  0  0  0  0  0  0  0  0  0  0
   -4.2333    0.8208    0.0000 C   0  0  0  0  0  0  0  0  0  0  0  0
   -3.6625    1.8333    0.0000 C   0  0  0  0  0  0  0  0  0  0  0  0
    2.4875    1.6333    0.0000 C   0  0  0  0  0  0  0  0  0  0  0  0
   -3.6625    0.4833    0.0000 C   0  0  0  0  0  0  0  0  0  0  0  0
   -3.0833    1.4958    0.0000 C   0  0  0  0  0  0  0  0  0  0  0  0
    3.0667    1.1000    0.0000 C   0  0  0  0  0  0  0  0  0  0  0  0
    1.7500    1.3958    0.0000 C   0  0  0  0  0  0  0  0  0  0  0  0
   -4.6625    0.5708    0.0000 Cl  0  0  0  0  0  0  0  0  0  0  0  0
   -3.0833    0.8208    0.0000 C   0  0  0  0  0  0  0  0  0  0  0  0
   -2.3625    1.8708    0.0000 O   0  0  0  0  0  0  0  0  0  0  0  0
    3.4792    1.2833    0.0000 O   0  0  0  0  0  0  0  0  0  0  0  0
    1.3292    1.7708    0.0000 O   0  0  0  0  0  0  0  0  0  0  0  0
   -0.4333    1.4458    0.0000 O   0  0  0  0  0  0  0  0  0  0  0  0
    2.1542    0.1125    0.0000 C   0  0  0  0  0  0  0  0  0  0  0  0
   -4.6833    1.7000    0.0000 C   0  0  0  0  0  0  0  0  0  0  0  0
    2.9000    0.3500    0.0000 C   0  0  0  0  0  0  0  0  0  0  0  0
    1.5875    0.6333    0.0000 C   0  0  0  0  0  0  0  0  0  0  0  0
   -1.6625    1.4458    0.0000 C   0  0  0  0  0  0  0  0  0  0  0  0
    0.6792    1.5625    0.0000 C   0  0  0  0  0  0  0  0  0  0  0  0
    3.9167    0.9125    0.0000 C   0  0  0  0  0  0  0  0  0  0  0  0
   -0.8625    1.8958    0.0000 C   0  0  0  0  0  0  0  0  0  0  0  0
    0.2542    1.9333    0.0000 C   0  0  0  0  0  0  0  0  0  0  0  0
    4.4792    1.1333    0.0000 C   0  0  0  0  0  0  0  0  0  0  0  0
  2  1  1  0  0  0  0
  3  1  2  0  0  0  0
  4  8  1  0  0  0  0
  5  2  2  0  0  0  0
  6  3  1  0  0  0  0
  7  4  2  0  0  0  0
  8 13  1  0  0  0  0
  9  2  1  0  0  0  0
 10  6  2  0  0  0  0
 11  6  1  0  0  0  0
 12  7  1  0  0  0  0
 13 20  1  0  0  0  0
 14 22  1  0  0  0  0
 15 18  1  0  0  0  0
 16  1  1  0  0  0  0
 17 15  2  0  0  0  0
 18  8  2  0  0  0  0
 19 11  1  0  0  0  0
 20 23  1  0  0  0  0
 21 12  1  0  0  0  0
 22 19  1  0  0  0  0
 23 14  1  0  0  0  0
 24 21  1  0  0  0  0
 10  5  1  0  0  0  0
  7 17  1  0  0  0  0
M  END
>  <ID> (6444165)
6444165

>  <Supplier> (6444165)
ChemBridge

>  <clogP> (6444165)
5.780000000000000e+000

>  <RB> (6444165)
8

>  <tPSA> (6444165)
3.692000000000000e+001

>  <Hacc> (6444165)
4

>  <Hdon> (6444165)
0

>  <LogSw> (6444165)
-6.693999999999998e+000

>  <Group> (6444165)
1

>  <Core> (6444165)
317

$$$$
5417032
  -ISIS-  03310818222D

 25 27  0  0  0  0  0  0  0  0999 V2000
    2.8042    1.8125    0.0000 C   0  0  3  0  0  0  0  0  0  0  0  0
   -1.2708    1.8125    0.0000 N   0  0  3  0  0  0  0  0  0  0  0  0
   -2.6333    1.0208    0.0000 N   0  0  3  0  0  0  0  0  0  0  0  0
    2.1292    2.2083    0.0000 C   0  0  0  0  0  0  0  0  0  0  0  0
   -0.5958    2.2125    0.0000 C   0  0  3  0  0  0  0  0  0  0  0  0
   -1.9500    2.2083    0.0000 C   0  0  0  0  0  0  0  0  0  0  0  0
   -1.2708    1.0208    0.0000 C   0  0  0  0  0  0  0  0  0  0  0  0
   -1.9500    0.6208    0.0000 C   0  0  0  0  0  0  0  0  0  0  0  0
   -2.6333    1.8125    0.0000 C   0  0  0  0  0  0  0  0  0  0  0  0
    1.4500    1.8000    0.0000 C   0  0  0  0  0  0  0  0  0  0  0  0
   -3.3208    0.6458    0.0000 C   0  0  0  0  0  0  0  0  0  0  0  0
    0.0875    1.8125    0.0000 C   0  0  0  0  0  0  0  0  0  0  0  0
    0.7667    2.2083    0.0000 C   0  0  0  0  0  0  0  0  0  0  0  0
    3.4792    1.4333    0.0000 F   0  0  0  0  0  0  0  0  0  0  0  0
    3.2000    2.4958    0.0000 F   0  0  0  0  0  0  0  0  0  0  0  0
    2.4167    1.1333    0.0000 F   0  0  0  0  0  0  0  0  0  0  0  0
    2.1292    2.9958    0.0000 C   0  0  0  0  0  0  0  0  0  0  0  0
    1.4500    3.3833    0.0000 C   0  0  0  0  0  0  0  0  0  0  0  0
    0.7667    2.9958    0.0000 C   0  0  0  0  0  0  0  0  0  0  0  0
   -0.5958    2.9958    0.0000 C   0  0  0  0  0  0  0  0  0  0  0  0
   -4.0000    1.0458    0.0000 C   0  0  0  0  0  0  0  0  0  0  0  0
   -3.3208   -0.1542    0.0000 C   0  0  0  0  0  0  0  0  0  0  0  0
   -4.0000   -0.5375    0.0000 C   0  0  0  0  0  0  0  0  0  0  0  0
   -4.6833    0.6458    0.0000 C   0  0  0  0  0  0  0  0  0  0  0  0
   -4.6833   -0.1500    0.0000 C   0  0  0  0  0  0  0  0  0  0  0  0
  2  5  1  0  0  0  0
  3  8  1  0  0  0  0
  4  1  1  0  0  0  0
  5 12  1  0  0  0  0
  6  2  1  0  0  0  0
  7  2  1  0  0  0  0
  8  7  1  0  0  0  0
  9  6  1  0  0  0  0
 10  4  2  0  0  0  0
 11  3  1  0  0  0  0
 12 13  1  0  0  0  0
 13 10  1  0  0  0  0
 14  1  1  0  0  0  0
 15  1  1  0  0  0  0
 16  1  1  0  0  0  0
 17  4  1  0  0  0  0
 18 17  2  0  0  0  0
 19 18  1  0  0  0  0
 20  5  1  0  0  0  0
 21 11  1  0  0  0  0
 22 11  2  0  0  0  0
 23 22  1  0  0  0  0
 24 21  2  0  0  0  0
 25 23  2  0  0  0  0
 19 13  2  0  0  0  0
  3  9  1  0  0  0  0
 25 24  1  0  0  0  0
M  END
>  <ID> (5417032)
5417032

>  <Supplier> (5417032)
ChemBridge

>  <clogP> (5417032)
4.830000000000000e+000

>  <RB> (5417032)
4

>  <tPSA> (5417032)
6.480000000000000e+000

>  <Hacc> (5417032)
1

>  <Hdon> (5417032)
0

>  <LogSw> (5417032)
-4.856999999999998e+000

>  <Group> (5417032)
2

>  <Core> (5417032)
162

$$$$
5326065
  -ISIS-  03310818212D

 29 32  0  0  0  0  0  0  0  0999 V2000
   -1.3333   -0.9542    0.0000 C   0  0  0  0  0  0  0  0  0  0  0  0
   -1.0125   -1.6292    0.0000 C   0  0  0  0  0  0  0  0  0  0  0  0
   -0.9958   -0.3042    0.0000 C   0  0  3  0  0  0  0  0  0  0  0  0
   -3.6458   -0.2500    0.0000 N   0  3  0  0  0  0  0  0  0  0  0  0
   -2.0708   -0.9000    0.0000 C   0  0  0  0  0  0  0  0  0  0  0  0
   -0.3000   -1.8167    0.0000 N   0  0  0  0  0  0  0  0  0  0  0  0
   -0.2958   -0.1500    0.0000 N   0  0  0  0  0  0  0  0  0  0  0  0
   -1.5000    0.2458    0.0000 C   0  0  0  0  0  0  0  0  0  0  0  0
   -3.4458    0.4500    0.0000 C   0  0  0  0  0  0  0  0  0  0  0  0
    0.2875   -1.3500    0.0000 C   0  0  0  0  0  0  0  0  0  0  0  0
    0.3042   -0.6042    0.0000 C   0  0  0  0  0  0  0  0  0  0  0  0
   -2.2125    0.0708    0.0000 C   0  0  0  0  0  0  0  0  0  0  0  0
   -1.4333   -2.2375    0.0000 C   0  0  0  0  0  0  0  0  0  0  0  0
   -2.1833   -2.1792    0.0000 C   0  0  3  0  0  0  0  0  0  0  0  0
   -2.4958   -1.5042    0.0000 C   0  0  0  0  0  0  0  0  0  0  0  0
   -4.3458   -0.4875    0.0000 O   0  5  0  0  0  0  0  0  0  0  0  0
   -3.1708   -0.8167    0.0000 O   0  0  0  0  0  0  0  0  0  0  0  0
   -2.7333    0.6125    0.0000 C   0  0  0  0  0  0  0  0  0  0  0  0
   -2.4125   -0.2167    0.0000 O   0  0  0  0  0  0  0  0  0  0  0  0
   -3.9583    0.9833    0.0000 C   0  0  0  0  0  0  0  0  0  0  0  0
   -2.1000   -2.9042    0.0000 C   0  0  0  0  0  0  0  0  0  0  0  0
   -2.7708   -2.6042    0.0000 C   0  0  0  0  0  0  0  0  0  0  0  0
    0.9500   -0.2375    0.0000 C   0  0  0  0  0  0  0  0  0  0  0  0
    0.9500   -1.7292    0.0000 C   0  0  0  0  0  0  0  0  0  0  0  0
   -2.5208    1.3333    0.0000 C   0  0  0  0  0  0  0  0  0  0  0  0
   -3.7458    1.6833    0.0000 C   0  0  0  0  0  0  0  0  0  0  0  0
    1.5875   -1.3500    0.0000 C   0  0  0  0  0  0  0  0  0  0  0  0
    1.5875   -0.6000    0.0000 C   0  0  0  0  0  0  0  0  0  0  0  0
   -3.0333    1.8625    0.0000 C   0  0  0  0  0  0  0  0  0  0  0  0
  2  1  2  0  0  0  0
  3  1  1  0  0  0  0
  4  9  1  0  0  0  0
  5  1  1  0  0  0  0
  6  2  1  0  0  0  0
  7  3  1  0  0  0  0
  8  3  1  0  0  0  0
  9 18  1  0  0  0  0
 10  6  1  0  0  0  0
 11  7  1  0  0  0  0
 12  8  2  0  0  0  0
 13  2  1  0  0  0  0
 14 15  1  0  0  0  0
 15  5  1  0  0  0  0
 16  4  1  0  0  0  0
 17  4  2  0  0  0  0
 18 12  1  0  0  0  0
 19  5  2  0  0  0  0
 20  9  2  0  0  0  0
 21 14  1  0  0  0  0
 22 14  1  0  0  0  0
 23 11  1  0  0  0  0
 24 10  1  0  0  0  0
 25 18  2  0  0  0  0
 26 29  2  0  0  0  0
 27 24  2  0  0  0  0
 28 23  2  0  0  0  0
 29 25  1  0  0  0  0
 13 14  1  0  0  0  0
 11 10  2  0  0  0  0
 28 27  1  0  0  0  0
 26 20  1  0  0  0  0
M  CHG  2   4   1  16  -1
M  END
>  <ID> (5326065)
5326065

>  <Supplier> (5326065)
ChemBridge

>  <clogP> (5326065)
4.240000000000000e+000

>  <RB> (5326065)
2

>  <tPSA> (5326065)
8.427000000000000e+001

>  <Hacc> (5326065)
3

>  <Hdon> (5326065)
2

>  <LogSw> (5326065)
-6.050000000000000e+000

>  <Group> (5326065)
3

>  <Core> (5326065)
102

$$$$
9007740
  -ISIS-  03310818282D

 22 23  0  0  0  0  0  0  0  0999 V2000
    5.8417    1.0750    0.0000 C   0  0  0  0  0  0  0  0  0  0  0  0
    8.0917    2.3750    0.0000 C   0  0  0  0  0  0  0  0  0  0  0  0
    6.2167    1.7250    0.0000 C   0  0  0  0  0  0  0  0  0  0  0  0
    6.9667    1.7250    0.0000 O   0  0  0  0  0  0  0  0  0  0  0  0
    5.0917    1.0750    0.0000 C   0  0  0  0  0  0  0  0  0  0  0  0
    3.5917    1.0750    0.0000 N   0  0  0  0  0  0  0  0  0  0  0  0
    8.4667    3.0250    0.0000 O   0  0  0  0  0  0  0  0  0  0  0  0
    5.8417    2.3750    0.0000 C   0  0  0  0  0  0  0  0  0  0  0  0
    7.3417    2.3750    0.0000 C   0  0  0  0  0  0  0  0  0  0  0  0
    4.7167    1.7250    0.0000 C   0  0  0  0  0  0  0  0  0  0  0  0
    2.8417    1.0750    0.0000 C   0  0  0  0  0  0  0  0  0  0  0  0
    8.4667    1.7250    0.0000 N   0  0  0  0  0  0  0  0  0  0  0  0
    6.2167    0.4250    0.0000 Cl  0  0  0  0  0  0  0  0  0  0  0  0
    3.9667    1.7250    0.0000 C   0  0  0  0  0  0  0  0  0  0  0  0
    1.3417    1.0750    0.0000 C   0  0  0  0  0  0  0  0  0  0  0  0
    5.0917    2.3750    0.0000 C   0  0  0  0  0  0  0  0  0  0  0  0
    2.4667    0.4250    0.0000 C   0  0  0  0  0  0  0  0  0  0  0  0
    2.4667    1.7250    0.0000 C   0  0  0  0  0  0  0  0  0  0  0  0
    1.7167    0.4250    0.0000 C   0  0  0  0  0  0  0  0  0  0  0  0
    1.7167    1.7250    0.0000 C   0  0  0  0  0  0  0  0  0  0  0  0
    0.5917    1.0750    0.0000 O   0  0  0  0  0  0  0  0  0  0  0  0
    0.2167    1.7250    0.0000 C   0  0  0  0  0  0  0  0  0  0  0  0
  2  9  1  0  0  0  0
  3  1  2  0  0  0  0
  4  3  1  0  0  0  0
  5  1  1  0  0  0  0
  6 14  1  0  0  0  0
  7  2  2  0  0  0  0
  8  3  1  0  0  0  0
  9  4  1  0  0  0  0
 10  5  2  0  0  0  0
 11  6  1  0  0  0  0
 12  2  1  0  0  0  0
 13  1  1  0  0  0  0
 14 10  1  0  0  0  0
 15 20  1  0  0  0  0
 16 10  1  0  0  0  0
 17 11  2  0  0  0  0
 18 11  1  0  0  0  0
 19 17  1  0  0  0  0
 20 18  2  0  0  0  0
 21 15  1  0  0  0  0
 22 21  1  0  0  0  0
 16  8  2  0  0  0  0
 15 19  2  0  0  0  0
M  END
>  <ID> (9007740)
9007740

>  <Supplier> (9007740)
ChemBridge

>  <clogP> (9007740)
2.230000000000000e+000

>  <RB> (9007740)
6

>  <tPSA> (9007740)
7.358000000000000e+001

>  <Hacc> (9007740)
3

>  <Hdon> (9007740)
2

>  <LogSw> (9007740)
-3.444000000000000e+000

>  <Group> (9007740)
2

>  <Core> (9007740)
315

$$$$
9007741
  -ISIS-  03310818282D

 20 21  0  0  0  0  0  0  0  0999 V2000
    1.9667    1.6083    0.0000 N   0  0  0  0  0  0  0  0  0  0  0  0
    1.3167    1.2333    0.0000 C   0  0  0  0  0  0  0  0  0  0  0  0
    1.9667    0.1083    0.0000 N   0  0  0  0  0  0  0  0  0  0  0  0
    2.6167    1.2333    0.0000 C   0  0  0  0  0  0  0  0  0  0  0  0
    2.6167    0.4833    0.0000 N   0  0  0  0  0  0  0  0  0  0  0  0
    1.3167    0.4833    0.0000 C   0  0  0  0  0  0  0  0  0  0  0  0
    4.5667    1.6083    0.0000 C   0  0  0  0  0  0  0  0  0  0  0  0
    5.2167    1.2333    0.0000 N   0  0  0  0  0  0  0  0  0  0  0  0
    3.2667    1.6083    0.0000 S   0  0  0  0  0  0  0  0  0  0  0  0
    0.6667    1.6083    0.0000 O   0  0  0  0  0  0  0  0  0  0  0  0
    5.8667    1.6083    0.0000 C   0  0  0  0  0  0  0  0  0  0  0  0
    6.5167    1.2333    0.0000 C   0  0  0  0  0  0  0  0  0  0  0  0
    4.5667    2.3583    0.0000 O   0  0  0  0  0  0  0  0  0  0  0  0
    3.9167    1.2333    0.0000 C   0  0  0  0  0  0  0  0  0  0  0  0
    7.1667    1.6083    0.0000 C   0  0  0  0  0  0  0  0  0  0  0  0
    7.8167    1.2333    0.0000 Cl  0  0  0  0  0  0  0  0  0  0  0  0
    0.6667    0.1083    0.0000 C   0  0  0  0  0  0  0  0  0  0  0  0
    6.5167    2.7333    0.0000 C   0  0  0  0  0  0  0  0  0  0  0  0
    5.8667    2.3583    0.0000 C   0  0  0  0  0  0  0  0  0  0  0  0
    7.1667    2.3583    0.0000 C   0  0  0  0  0  0  0  0  0  0  0  0
  2  1  1  0  0  0  0
  3  5  1  0  0  0  0
  4  1  1  0  0  0  0
  5  4  2  0  0  0  0
  6  2  1  0  0  0  0
  7 14  1  0  0  0  0
  8  7  1  0  0  0  0
  9  4  1  0  0  0  0
 10  2  2  0  0  0  0
 11  8  1  0  0  0  0
 12 11  2  0  0  0  0
 13  7  2  0  0  0  0
 14  9  1  0  0  0  0
 15 12  1  0  0  0  0
 16 15  1  0  0  0  0
 17  6  1  0  0  0  0
 18 19  2  0  0  0  0
 19 11  1  0  0  0  0
 20 18  1  0  0  0  0
  3  6  2  0  0  0  0
 20 15  2  0  0  0  0
M  END
>  <ID> (9007741)
9007741

>  <Supplier> (9007741)
ChemBridge

>  <clogP> (9007741)
6.700000000000000e-001

>  <RB> (9007741)
4

>  <tPSA> (9007741)
8.774000000000000e+001

>  <Hacc> (9007741)
4

>  <Hdon> (9007741)
2

>  <LogSw> (9007741)
-2.039000000000000e+000

>  <Group> (9007741)
3

$$$$
9007742
  -ISIS-  03310818282D

 23 25  0  0  0  0  0  0  0  0999 V2000
    5.8667    1.8333    0.0000 N   0  0  3  0  0  0  0  0  0  0  0  0
    5.4292    2.4333    0.0000 C   0  0  0  0  0  0  0  0  0  0  0  0
    5.4292    1.2208    0.0000 C   0  0  0  0  0  0  0  0  0  0  0  0
    4.7125    1.4583    0.0000 C   0  0  3  0  0  0  0  0  0  0  0  0
    4.7125    2.2083    0.0000 C   0  0  0  0  0  0  0  0  0  0  0  0
    4.1042    1.0125    0.0000 N   0  0  0  0  0  0  0  0  0  0  0  0
    6.6167    1.8333    0.0000 C   0  0  0  0  0  0  0  0  0  0  0  0
    5.6542    3.1458    0.0000 O   0  0  0  0  0  0  0  0  0  0  0  0
    5.6542    0.5083    0.0000 O   0  0  0  0  0  0  0  0  0  0  0  0
    2.0500    1.9250    0.0000 C   0  0  0  0  0  0  0  0  0  0  0  0
    1.3667    2.2333    0.0000 N   0  0  3  0  0  0  0  0  0  0  0  0
    3.4167    1.3208    0.0000 C   0  0  0  0  0  0  0  0  0  0  0  0
    2.1292    1.1833    0.0000 C   0  0  0  0  0  0  0  0  0  0  0  0
    2.6542    2.3708    0.0000 C   0  0  0  0  0  0  0  0  0  0  0  0
    2.8167    0.8750    0.0000 C   0  0  0  0  0  0  0  0  0  0  0  0
    3.3417    2.0625    0.0000 C   0  0  0  0  0  0  0  0  0  0  0  0
    1.2875    2.9833    0.0000 C   0  0  0  0  0  0  0  0  0  0  0  0
    0.7542    1.7958    0.0000 C   0  0  0  0  0  0  0  0  0  0  0  0
    6.9917    1.1833    0.0000 C   0  0  0  0  0  0  0  0  0  0  0  0
    6.9917    2.4750    0.0000 C   0  0  0  0  0  0  0  0  0  0  0  0
    7.7417    2.4750    0.0000 C   0  0  0  0  0  0  0  0  0  0  0  0
    7.7417    1.1833    0.0000 C   0  0  0  0  0  0  0  0  0  0  0  0
    8.1167    1.8333    0.0000 C   0  0  0  0  0  0  0  0  0  0  0  0
  2  1  1  0  0  0  0
  3  1  1  0  0  0  0
  4  3  1  0  0  0  0
  5  2  1  0  0  0  0
  6  4  1  0  0  0  0
  7  1  1  0  0  0  0
  8  2  2  0  0  0  0
  9  3  2  0  0  0  0
 10 14  2  0  0  0  0
 11 10  1  0  0  0  0
 12  6  1  0  0  0  0
 13 15  2  0  0  0  0
 14 16  1  0  0  0  0
 15 12  1  0  0  0  0
 16 12  2  0  0  0  0
 17 11  1  0  0  0  0
 18 11  1  0  0  0  0
 19  7  2  0  0  0  0
 20  7  1  0  0  0  0
 21 20  2  0  0  0  0
 22 19  1  0  0  0  0
 23 21  1  0  0  0  0
  5  4  1  0  0  0  0
 23 22  2  0  0  0  0
 13 10  1  0  0  0  0
M  END
>  <ID> (9007742)
9007742

>  <Supplier> (9007742)
ChemBridge

>  <clogP> (9007742)
2.650000000000000e+000

>  <RB> (9007742)
3

>  <tPSA> (9007742)
5.265000000000000e+001

>  <Hacc> (9007742)
2

>  <Hdon> (9007742)
1

>  <LogSw> (9007742)
-3.719000000000000e+000

>  <Group> (9007742)
1

>  <Core> (9007742)
126

$$$$
9007743
  -ISIS-  03310818282D

 27 29  0  0  0  0  0  0  0  0999 V2000
    6.2625    3.3458    0.0000 C   0  0  0  0  0  0  0  0  0  0  0  0
    6.2625    2.5958    0.0000 C   0  0  0  0  0  0  0  0  0  0  0  0
    5.5500    3.5708    0.0000 N   0  0  0  0  0  0  0  0  0  0  0  0
    6.9125    3.7208    0.0000 N   0  0  3  0  0  0  0  0  0  0  0  0
    7.5625    2.5958    0.0000 N   0  0  3  0  0  0  0  0  0  0  0  0
    7.5625    3.3458    0.0000 C   0  0  0  0  0  0  0  0  0  0  0  0
    6.9125    2.2208    0.0000 C   0  0  0  0  0  0  0  0  0  0  0  0
    5.1042    2.9708    0.0000 C   0  0  0  0  0  0  0  0  0  0  0  0
    5.5500    2.3583    0.0000 N   0  0  3  0  0  0  0  0  0  0  0  0
    4.3542    2.9708    0.0000 S   0  0  0  0  0  0  0  0  0  0  0  0
    8.2125    3.7208    0.0000 O   0  0  0  0  0  0  0  0  0  0  0  0
    6.9125    1.4708    0.0000 O   0  0  0  0  0  0  0  0  0  0  0  0
    3.2292    3.6208    0.0000 C   0  0  0  0  0  0  0  0  0  0  0  0
    2.8542    4.2625    0.0000 N   0  0  0  0  0  0  0  0  0  0  0  0
    2.8542    2.9708    0.0000 O   0  0  0  0  0  0  0  0  0  0  0  0
    6.9125    4.4625    0.0000 C   0  0  0  0  0  0  0  0  0  0  0  0
    8.2125    2.2208    0.0000 C   0  0  0  0  0  0  0  0  0  0  0  0
    5.3167    1.6458    0.0000 C   0  0  0  0  0  0  0  0  0  0  0  0
    3.9792    3.6208    0.0000 C   0  0  0  0  0  0  0  0  0  0  0  0
    4.5792    1.4958    0.0000 C   0  0  0  0  0  0  0  0  0  0  0  0
    4.3500    0.7750    0.0000 C   0  0  0  0  0  0  0  0  0  0  0  0
    2.1042    4.2625    0.0000 C   0  0  0  0  0  0  0  0  0  0  0  0
    1.7292    4.9042    0.0000 C   0  0  0  0  0  0  0  0  0  0  0  0
    1.7292    3.6208    0.0000 C   0  0  0  0  0  0  0  0  0  0  0  0
    0.9792    3.6208    0.0000 C   0  0  0  0  0  0  0  0  0  0  0  0
    0.9792    4.9042    0.0000 C   0  0  0  0  0  0  0  0  0  0  0  0
    0.6042    4.2625    0.0000 C   0  0  0  0  0  0  0  0  0  0  0  0
  2  1  2  0  0  0  0
  3  1  1  0  0  0  0
  4  1  1  0  0  0  0
  5  6  1  0  0  0  0
  6  4  1  0  0  0  0
  7  2  1  0  0  0  0
  8  3  2  0  0  0  0
  9  2  1  0  0  0  0
 10  8  1  0  0  0  0
 11  6  2  0  0  0  0
 12  7  2  0  0  0  0
 13 19  1  0  0  0  0
 14 13  1  0  0  0  0
 15 13  2  0  0  0  0
 16  4  1  0  0  0  0
 17  5  1  0  0  0  0
 18  9  1  0  0  0  0
 19 10  1  0  0  0  0
 20 18  1  0  0  0  0
 21 20  2  0  0  0  0
 22 14  1  0  0  0  0
 23 22  2  0  0  0  0
 24 22  1  0  0  0  0
 25 24  2  0  0  0  0
 26 23  1  0  0  0  0
 27 25  1  0  0  0  0
  8  9  1  0  0  0  0
  7  5  1  0  0  0  0
 27 26  2  0  0  0  0
M  END
>  <ID> (9007743)
9007743

>  <Supplier> (9007743)
ChemBridge

>  <clogP> (9007743)
2.420000000000000e+000

>  <RB> (9007743)
6

>  <tPSA> (9007743)
9.092000000000000e+001

>  <Hacc> (9007743)
4

>  <Hdon> (9007743)
1

>  <LogSw> (9007743)
-4.077000000000000e+000

>  <Group> (9007743)
2

>  <Core> (9007743)
252

$$$$
5145701
  -ISIS-  03310818212D

 20 21  0  0  0  0  0  0  0  0999 V2000
   -0.8958   -1.0000    0.0000 C   0  0  0  0  0  0  0  0  0  0  0  0
   -0.1958   -1.4000    0.0000 N   0  0  0  0  0  0  0  0  0  0  0  0
    0.5042   -1.0000    0.0000 C   0  0  0  0  0  0  0  0  0  0  0  0
   -1.5958   -1.4167    0.0000 N   0  0  0  0  0  0  0  0  0  0  0  0
    0.5042   -0.2000    0.0000 S   0  0  0  0  0  0  0  0  0  0  0  0
   -0.8958   -0.2000    0.0000 C   0  0  0  0  0  0  0  0  0  0  0  0
   -2.2958   -1.0167    0.0000 C   0  0  0  0  0  0  0  0  0  0  0  0
    1.2042   -1.4000    0.0000 N   0  0  0  0  0  0  0  0  0  0  0  0
   -3.6958   -0.2167    0.0000 C   0  0  0  0  0  0  0  0  0  0  0  0
   -2.9958   -1.4167    0.0000 C   0  0  0  0  0  0  0  0  0  0  0  0
   -2.2958   -0.2167    0.0000 C   0  0  0  0  0  0  0  0  0  0  0  0
   -3.6958   -1.0167    0.0000 C   0  0  0  0  0  0  0  0  0  0  0  0
   -2.9958    0.2000    0.0000 C   0  0  0  0  0  0  0  0  0  0  0  0
   -0.1958    0.2208    0.0000 C   0  0  0  0  0  0  0  0  0  0  0  0
   -1.5958    0.2208    0.0000 C   0  0  0  0  0  0  0  0  0  0  0  0
    1.9000   -1.0000    0.0000 C   0  0  0  0  0  0  0  0  0  0  0  0
   -4.3958    0.1625    0.0000 C   0  0  0  0  0  0  0  0  0  0  0  0
   -0.1958    1.0208    0.0000 C   0  0  0  0  0  0  0  0  0  0  0  0
   -1.5958    1.0208    0.0000 C   0  0  0  0  0  0  0  0  0  0  0  0
   -0.8958    1.4208    0.0000 C   0  0  0  0  0  0  0  0  0  0  0  0
  2  1  1  0  0  0  0
  3  2  1  0  0  0  0
  4  1  2  0  0  0  0
  5  3  2  0  0  0  0
  6  1  1  0  0  0  0
  7  4  1  0  0  0  0
  8  3  1  0  0  0  0
  9 13  2  0  0  0  0
 10  7  1  0  0  0  0
 11  7  2  0  0  0  0
 12 10  2  0  0  0  0
 13 11  1  0  0  0  0
 14  6  2  0  0  0  0
 15  6  1  0  0  0  0
 16  8  1  0  0  0  0
 17  9  1  0  0  0  0
 18 14  1  0  0  0  0
 19 15  2  0  0  0  0
 20 19  1  0  0  0  0
 20 18  2  0  0  0  0
  9 12  1  0  0  0  0
M  END
>  <ID> (5145701)
5145701

>  <Supplier> (5145701)
ChemBridge

>  <clogP> (5145701)
4.960000000000000e+000

>  <RB> (5145701)
3

>  <tPSA> (5145701)
3.642000000000000e+001

>  <Hacc> (5145701)
1

>  <Hdon> (5145701)
2

>  <LogSw> (5145701)
-4.495000000000000e+000

>  <Group> (5145701)
1

$$$$
5145700
  -ISIS-  03310818212D

 19 20  0  0  0  0  0  0  0  0999 V2000
   -0.8958   -1.0000    0.0000 C   0  0  0  0  0  0  0  0  0  0  0  0
   -0.1958   -1.4000    0.0000 N   0  0  0  0  0  0  0  0  0  0  0  0
    0.5042   -1.0000    0.0000 C   0  0  0  0  0  0  0  0  0  0  0  0
   -1.5958   -1.4167    0.0000 N   0  0  0  0  0  0  0  0  0  0  0  0
    0.5042   -0.2000    0.0000 S   0  0  0  0  0  0  0  0  0  0  0  0
   -0.8958   -0.2000    0.0000 C   0  0  0  0  0  0  0  0  0  0  0  0
    1.2042   -1.4000    0.0000 N   0  0  0  0  0  0  0  0  0  0  0  0
   -2.2958   -1.0167    0.0000 C   0  0  0  0  0  0  0  0  0  0  0  0
   -1.5958    0.2208    0.0000 C   0  0  0  0  0  0  0  0  0  0  0  0
   -0.1958    0.2208    0.0000 C   0  0  0  0  0  0  0  0  0  0  0  0
    1.9000   -1.0000    0.0000 C   0  0  0  0  0  0  0  0  0  0  0  0
   -2.2958   -0.2167    0.0000 C   0  0  0  0  0  0  0  0  0  0  0  0
   -2.9958   -1.4167    0.0000 C   0  0  0  0  0  0  0  0  0  0  0  0
   -0.1958    1.0208    0.0000 C   0  0  0  0  0  0  0  0  0  0  0  0
   -1.5958    1.0208    0.0000 C   0  0  0  0  0  0  0  0  0  0  0  0
   -2.9958    0.2000    0.0000 C   0  0  0  0  0  0  0  0  0  0  0  0
   -3.6958   -1.0167    0.0000 C   0  0  0  0  0  0  0  0  0  0  0  0
   -0.8958    1.4208    0.0000 C   0  0  0  0  0  0  0  0  0  0  0  0
   -3.6958   -0.2167    0.0000 C   0  0  0  0  0  0  0  0  0  0  0  0
  2  1  1  0  0  0  0
  3  2  1  0  0  0  0
  4  1  2  0  0  0  0
  5  3  2  0  0  0  0
  6  1  1  0  0  0  0
  7  3  1  0  0  0  0
  8  4  1  0  0  0  0
  9  6  1  0  0  0  0
 10  6  2  0  0  0  0
 11  7  1  0  0  0  0
 12  8  2  0  0  0  0
 13  8  1  0  0  0  0
 14 10  1  0  0  0  0
 15  9  2  0  0  0  0
 16 12  1  0  0  0  0
 17 13  2  0  0  0  0
 18 14  2  0  0  0  0
 19 17  1  0  0  0  0
 15 18  1  0  0  0  0
 19 16  2  0  0  0  0
M  END
>  <ID> (5145700)
5145700

>  <Supplier> (5145700)
ChemBridge

>  <clogP> (5145700)
4.460000000000000e+000

>  <RB> (5145700)
3

>  <tPSA> (5145700)
3.642000000000000e+001

>  <Hacc> (5145700)
1

>  <Hdon> (5145700)
2

>  <LogSw> (5145700)
-3.966000000000000e+000

>  <Group> (5145700)
1

$$$$
5145703
  -ISIS-  03310818212D

 27 29  0  0  0  0  0  0  0  0999 V2000
   -2.1833   -1.0000    0.0000 S   0  0  3  0  0  0  0  0  0  0  0  0
   -1.5208   -1.3792    0.0000 N   0  0  0  0  0  0  0  0  0  0  0  0
   -0.8625   -0.9792    0.0000 C   0  0  0  0  0  0  0  0  0  0  0  0
   -0.2000   -1.3542    0.0000 N   0  0  0  0  0  0  0  0  0  0  0  0
    0.4542   -0.9792    0.0000 C   0  0  0  0  0  0  0  0  0  0  0  0
   -1.8000   -0.3167    0.0000 O   0  0  0  0  0  0  0  0  0  0  0  0
   -2.5833   -1.6542    0.0000 O   0  0  0  0  0  0  0  0  0  0  0  0
   -2.8625   -0.6000    0.0000 C   0  0  0  0  0  0  0  0  0  0  0  0
    1.1167   -1.3542    0.0000 N   0  0  0  0  0  0  0  0  0  0  0  0
    0.4542   -0.2000    0.0000 S   0  0  0  0  0  0  0  0  0  0  0  0
   -0.8625   -0.2167    0.0000 C   0  0  0  0  0  0  0  0  0  0  0  0
    1.7792   -0.9542    0.0000 C   0  0  0  0  0  0  0  0  0  0  0  0
   -3.5208   -0.9792    0.0000 C   0  0  0  0  0  0  0  0  0  0  0  0
   -2.8625    0.1833    0.0000 C   0  0  0  0  0  0  0  0  0  0  0  0
   -0.2000    0.1833    0.0000 C   0  0  0  0  0  0  0  0  0  0  0  0
   -1.5208    0.1833    0.0000 C   0  0  0  0  0  0  0  0  0  0  0  0
    2.4375   -1.3375    0.0000 C   0  0  0  0  0  0  0  0  0  0  0  0
    1.7792   -0.1792    0.0000 C   0  0  0  0  0  0  0  0  0  0  0  0
   -1.5208    0.9458    0.0000 C   0  0  0  0  0  0  0  0  0  0  0  0
   -0.2208    0.9625    0.0000 C   0  0  0  0  0  0  0  0  0  0  0  0
   -3.5208    0.5625    0.0000 C   0  0  0  0  0  0  0  0  0  0  0  0
   -4.1833   -0.6000    0.0000 C   0  0  0  0  0  0  0  0  0  0  0  0
    2.4375    0.2000    0.0000 C   0  0  0  0  0  0  0  0  0  0  0  0
    3.1000   -0.9542    0.0000 C   0  0  0  0  0  0  0  0  0  0  0  0
    3.1000   -0.2000    0.0000 C   0  0  0  0  0  0  0  0  0  0  0  0
   -4.1833    0.1625    0.0000 C   0  0  0  0  0  0  0  0  0  0  0  0
   -0.8625    1.3208    0.0000 C   0  0  0  0  0  0  0  0  0  0  0  0
  2  1  1  0  0  0  0
  3  2  2  0  0  0  0
  4  3  1  0  0  0  0
  5  4  1  0  0  0  0
  6  1  2  0  0  0  0
  7  1  2  0  0  0  0
  8  1  1  0  0  0  0
  9  5  1  0  0  0  0
 10  5  2  0  0  0  0
 11  3  1  0  0  0  0
 12  9  1  0  0  0  0
 13  8  2  0  0  0  0
 14  8  1  0  0  0  0
 15 11  2  0  0  0  0
 16 11  1  0  0  0  0
 17 12  2  0  0  0  0
 18 12  1  0  0  0  0
 19 16  2  0  0  0  0
 20 15  1  0  0  0  0
 21 14  2  0  0  0  0
 22 13  1  0  0  0  0
 23 18  2  0  0  0  0
 24 17  1  0  0  0  0
 25 23  1  0  0  0  0
 26 21  1  0  0  0  0
 27 19  1  0  0  0  0
 22 26  2  0  0  0  0
 27 20  2  0  0  0  0
 25 24  2  0  0  0  0
M  END
>  <ID> (5145703)
5145703

>  <Supplier> (5145703)
ChemBridge

>  <clogP> (5145703)
5.500000000000000e+000

>  <RB> (5145703)
4

>  <tPSA> (5145703)
7.056000000000000e+001

>  <Hacc> (5145703)
3

>  <Hdon> (5145703)
2

>  <LogSw> (5145703)
-6.780000000000000e+000

>  <Group> (5145703)
3

$$$$
5145702
  -ISIS-  03310818212D

 27 29  0  0  0  0  0  0  0  0999 V2000
   -0.9208   -1.0292    0.0000 C   0  0  0  0  0  0  0  0  0  0  0  0
   -0.2458   -1.4042    0.0000 N   0  0  0  0  0  0  0  0  0  0  0  0
    0.4542   -1.0292    0.0000 C   0  0  0  0  0  0  0  0  0  0  0  0
   -1.6000   -1.4042    0.0000 N   0  0  0  0  0  0  0  0  0  0  0  0
    1.1375   -1.4042    0.0000 N   0  0  0  0  0  0  0  0  0  0  0  0
    0.4542   -0.2292    0.0000 S   0  0  0  0  0  0  0  0  0  0  0  0
   -0.9208   -0.2292    0.0000 C   0  0  0  0  0  0  0  0  0  0  0  0
   -2.2833   -1.0292    0.0000 C   0  0  0  0  0  0  0  0  0  0  0  0
    1.8167   -1.0292    0.0000 C   0  0  0  0  0  0  0  0  0  0  0  0
    3.1792   -0.2292    0.0000 C   0  0  0  0  0  0  0  0  0  0  0  0
   -3.6458   -0.2292    0.0000 C   0  0  0  0  0  0  0  0  0  0  0  0
   -2.2833   -0.2292    0.0000 C   0  0  0  0  0  0  0  0  0  0  0  0
   -2.9625   -1.4042    0.0000 C   0  0  0  0  0  0  0  0  0  0  0  0
    2.5000   -1.4042    0.0000 C   0  0  0  0  0  0  0  0  0  0  0  0
    1.8167   -0.2292    0.0000 C   0  0  0  0  0  0  0  0  0  0  0  0
    2.5000    0.1708    0.0000 C   0  0  0  0  0  0  0  0  0  0  0  0
    3.1792   -1.0292    0.0000 C   0  0  0  0  0  0  0  0  0  0  0  0
   -2.9625    0.1708    0.0000 C   0  0  0  0  0  0  0  0  0  0  0  0
   -3.6458   -1.0292    0.0000 C   0  0  0  0  0  0  0  0  0  0  0  0
    3.8542    0.1708    0.0000 O   0  0  0  0  0  0  0  0  0  0  0  0
   -0.2458    0.1708    0.0000 C   0  0  0  0  0  0  0  0  0  0  0  0
   -1.6000    0.1708    0.0000 C   0  0  0  0  0  0  0  0  0  0  0  0
   -4.3208    0.1708    0.0000 C   0  0  0  0  0  0  0  0  0  0  0  0
    4.5375   -0.2042    0.0000 C   0  0  0  0  0  0  0  0  0  0  0  0
   -1.6000    0.9500    0.0000 C   0  0  0  0  0  0  0  0  0  0  0  0
   -0.2458    0.9500    0.0000 C   0  0  0  0  0  0  0  0  0  0  0  0
   -0.9208    1.3500    0.0000 C   0  0  0  0  0  0  0  0  0  0  0  0
  2  1  1  0  0  0  0
  3  2  1  0  0  0  0
  4  1  2  0  0  0  0
  5  3  1  0  0  0  0
  6  3  2  0  0  0  0
  7  1  1  0  0  0  0
  8  4  1  0  0  0  0
  9  5  1  0  0  0  0
 10 16  1  0  0  0  0
 11 19  1  0  0  0  0
 12  8  2  0  0  0  0
 13  8  1  0  0  0  0
 14  9  2  0  0  0  0
 15  9  1  0  0  0  0
 16 15  2  0  0  0  0
 17 14  1  0  0  0  0
 18 12  1  0  0  0  0
 19 13  2  0  0  0  0
 20 10  1  0  0  0  0
 21  7  2  0  0  0  0
 22  7  1  0  0  0  0
 23 11  1  0  0  0  0
 24 20  1  0  0  0  0
 25 22  2  0  0  0  0
 26 21  1  0  0  0  0
 27 25  1  0  0  0  0
 26 27  2  0  0  0  0
 11 18  2  0  0  0  0
 17 10  2  0  0  0  0
M  END
>  <ID> (5145702)
5145702

>  <Supplier> (5145702)
ChemBridge

>  <clogP> (5145702)
5.920000000000000e+000

>  <RB> (5145702)
4

>  <tPSA> (5145702)
4.564999999999998e+001

>  <Hacc> (5145702)
2

>  <Hdon> (5145702)
2

>  <LogSw> (5145702)
-5.985000000000000e+000

>  <Group> (5145702)
3

$$$$
5106560
  -ISIS-  03310818212D

 29 31  0  0  0  0  0  0  0  0999 V2000
    1.1375   -0.8000    0.0000 S   0  0  3  0  0  0  0  0  0  0  0  0
    1.8875   -0.4292    0.0000 N   0  0  0  0  0  0  0  0  0  0  0  0
    2.6542   -0.8875    0.0000 C   0  0  0  0  0  0  0  0  0  0  0  0
   -2.0208    1.8125    0.0000 C   0  0  0  0  0  0  0  0  0  0  0  0
    3.4792   -0.4292    0.0000 C   0  0  0  0  0  0  0  0  0  0  0  0
    0.3500   -0.3792    0.0000 C   0  0  0  0  0  0  0  0  0  0  0  0
   -2.0000    0.9125    0.0000 N   0  0  0  0  0  0  0  0  0  0  0  0
    2.6375   -1.8292    0.0000 N   0  0  0  0  0  0  0  0  0  0  0  0
    1.7042   -1.3500    0.0000 O   0  0  0  0  0  0  0  0  0  0  0  0
    0.4375   -1.3042    0.0000 O   0  0  0  0  0  0  0  0  0  0  0  0
   -2.7958    2.2500    0.0000 C   0  0  0  0  0  0  0  0  0  0  0  0
    4.2875   -0.9167    0.0000 N   0  0  0  0  0  0  0  0  0  0  0  0
   -1.2333    2.2333    0.0000 O   0  0  0  0  0  0  0  0  0  0  0  0
    0.3292    0.5125    0.0000 C   0  0  0  0  0  0  0  0  0  0  0  0
   -0.4208   -0.8500    0.0000 C   0  0  0  0  0  0  0  0  0  0  0  0
   -2.7958    3.1958    0.0000 C   0  0  0  0  0  0  0  0  0  0  0  0
   -3.6000    1.7833    0.0000 C   0  0  0  0  0  0  0  0  0  0  0  0
   -1.2208    0.4833    0.0000 C   0  0  0  0  0  0  0  0  0  0  0  0
    3.4792    0.3125    0.0000 O   0  0  0  0  0  0  0  0  0  0  0  0
   -4.4125    3.1958    0.0000 C   0  0  0  0  0  0  0  0  0  0  0  0
   -0.4625    0.9500    0.0000 C   0  0  0  0  0  0  0  0  0  0  0  0
   -1.2000   -0.4167    0.0000 C   0  0  0  0  0  0  0  0  0  0  0  0
   -4.4125    2.2500    0.0000 C   0  0  0  0  0  0  0  0  0  0  0  0
   -3.6000    3.6708    0.0000 C   0  0  0  0  0  0  0  0  0  0  0  0
   -5.2208    3.5833    0.0000 O   0  0  0  0  0  0  0  0  0  0  0  0
    3.4542   -2.3000    0.0000 C   0  0  0  0  0  0  0  0  0  0  0  0
    4.2875   -1.8375    0.0000 C   0  0  0  0  0  0  0  0  0  0  0  0
    4.0542    0.7833    0.0000 C   0  0  0  0  0  0  0  0  0  0  0  0
   -5.7500    3.2333    0.0000 C   0  0  0  0  0  0  0  0  0  0  0  0
  2  1  1  0  0  0  0
  3  2  1  0  0  0  0
  4  7  1  0  0  0  0
  5  3  2  0  0  0  0
  6  1  1  0  0  0  0
  7 18  1  0  0  0  0
  8  3  1  0  0  0  0
  9  1  2  0  0  0  0
 10  1  2  0  0  0  0
 11  4  1  0  0  0  0
 12  5  1  0  0  0  0
 13  4  2  0  0  0  0
 14  6  2  0  0  0  0
 15  6  1  0  0  0  0
 16 11  2  0  0  0  0
 17 11  1  0  0  0  0
 18 22  1  0  0  0  0
 19  5  1  0  0  0  0
 20 23  1  0  0  0  0
 21 14  1  0  0  0  0
 22 15  2  0  0  0  0
 23 17  2  0  0  0  0
 24 16  1  0  0  0  0
 25 20  1  0  0  0  0
 26  8  2  0  0  0  0
 27 26  1  0  0  0  0
 28 19  1  0  0  0  0
 29 25  1  0  0  0  0
 18 21  2  0  0  0  0
 12 27  2  0  0  0  0
 20 24  2  0  0  0  0
M  END
>  <ID> (5106560)
5106560

>  <Supplier> (5106560)
ChemBridge

>  <clogP> (5106560)
2.410000000000000e+000

>  <RB> (5106560)
4

>  <tPSA> (5106560)
1.195100000000000e+002

>  <Hacc> (5106560)
7

>  <Hdon> (5106560)
2

>  <LogSw> (5106560)
-4.279000000000002e+000

>  <Group> (5106560)
3

>  <Core> (5106560)
234

$$$$
6813770
  -ISIS-  03310818242D

 27 29  0  0  0  0  0  0  0  0999 V2000
    4.8417   -5.1792    0.0000 N   0  0  0  0  0  0  0  0  0  0  0  0
    5.4917   -4.8042    0.0000 C   0  0  0  0  0  0  0  0  0  0  0  0
    4.1917   -4.8042    0.0000 C   0  0  0  0  0  0  0  0  0  0  0  0
    6.1417   -5.1792    0.0000 N   0  0  0  0  0  0  0  0  0  0  0  0
    6.7917   -4.8042    0.0000 C   0  0  0  0  0  0  0  0  0  0  0  0
    3.5417   -5.1792    0.0000 C   0  0  0  0  0  0  0  0  0  0  0  0
    5.4917   -4.0542    0.0000 S   0  0  0  0  0  0  0  0  0  0  0  0
    7.4417   -5.1792    0.0000 C   0  0  0  0  0  0  0  0  0  0  0  0
    4.1917   -4.0542    0.0000 O   0  0  0  0  0  0  0  0  0  0  0  0
    2.8917   -4.8042    0.0000 C   0  0  0  0  0  0  0  0  0  0  0  0
    8.0917   -4.8042    0.0000 C   0  0  0  0  0  0  0  0  0  0  0  0
    2.2417   -5.1792    0.0000 C   0  0  0  0  0  0  0  0  0  0  0  0
    6.7917   -4.0542    0.0000 C   0  0  0  0  0  0  0  0  0  0  0  0
    1.5917   -4.8042    0.0000 O   0  0  0  0  0  0  0  0  0  0  0  0
    3.5417   -5.9292    0.0000 C   0  0  0  0  0  0  0  0  0  0  0  0
    7.4417   -3.6750    0.0000 C   0  0  0  0  0  0  0  0  0  0  0  0
    2.8917   -6.3042    0.0000 C   0  0  0  0  0  0  0  0  0  0  0  0
    7.4417   -5.9292    0.0000 C   0  0  0  0  0  0  0  0  0  0  0  0
    8.0917   -4.0542    0.0000 C   0  0  0  0  0  0  0  0  0  0  0  0
    2.2417   -5.9292    0.0000 C   0  0  0  0  0  0  0  0  0  0  0  0
    8.7500   -5.1792    0.0000 C   0  0  0  0  0  0  0  0  0  0  0  0
    1.5917   -4.0542    0.0000 C   0  0  0  0  0  0  0  0  0  0  0  0
    0.9500   -3.6792    0.0000 C   0  0  0  0  0  0  0  0  0  0  0  0
    0.9500   -2.9292    0.0000 C   0  0  0  0  0  0  0  0  0  0  0  0
    8.0917   -6.3125    0.0000 C   0  0  0  0  0  0  0  0  0  0  0  0
    0.3000   -2.5542    0.0000 C   0  0  0  0  0  0  0  0  0  0  0  0
    8.7417   -5.9375    0.0000 C   0  0  0  0  0  0  0  0  0  0  0  0
  2  1  1  0  0  0  0
  3  1  1  0  0  0  0
  4  2  1  0  0  0  0
  5  4  1  0  0  0  0
  6  3  1  0  0  0  0
  7  2  2  0  0  0  0
  8  5  2  0  0  0  0
  9  3  2  0  0  0  0
 10  6  1  0  0  0  0
 11  8  1  0  0  0  0
 12 10  2  0  0  0  0
 13  5  1  0  0  0  0
 14 12  1  0  0  0  0
 15  6  2  0  0  0  0
 16 13  2  0  0  0  0
 17 15  1  0  0  0  0
 18  8  1  0  0  0  0
 19 16  1  0  0  0  0
 20 17  2  0  0  0  0
 21 11  1  0  0  0  0
 22 14  1  0  0  0  0
 23 22  1  0  0  0  0
 24 23  1  0  0  0  0
 25 18  2  0  0  0  0
 26 24  1  0  0  0  0
 27 25  1  0  0  0  0
 12 20  1  0  0  0  0
 11 19  2  0  0  0  0
 27 21  2  0  0  0  0
M  END
>  <ID> (6813770)
6813770

>  <Supplier> (6813770)
ChemBridge

>  <clogP> (6813770)
5.520000000000000e+000

>  <RB> (6813770)
4

>  <tPSA> (6813770)
5.036000000000001e+001

>  <Hacc> (6813770)
2

>  <Hdon> (6813770)
2

>  <LogSw> (6813770)
-6.674000000000000e+000

>  <Group> (6813770)
1

>  <Core> (6813770)
071

$$$$
6038917
  -ISIS-  03310818232D

 20 22  0  0  0  0  0  0  0  0999 V2000
    1.3042   -0.2042    0.0000 N   0  0  0  0  0  0  0  0  0  0  0  0
    0.5667    0.2208    0.0000 C   0  0  0  0  0  0  0  0  0  0  0  0
    1.3042   -1.0542    0.0000 N   0  0  0  0  0  0  0  0  0  0  0  0
   -0.1708   -0.2042    0.0000 C   0  0  0  0  0  0  0  0  0  0  0  0
    0.5667   -1.4792    0.0000 C   0  0  0  0  0  0  0  0  0  0  0  0
   -0.1708   -1.0542    0.0000 C   0  0  0  0  0  0  0  0  0  0  0  0
    0.5542    1.0500    0.0000 C   0  0  0  0  0  0  0  0  0  0  0  0
    1.2792    1.5000    0.0000 C   0  0  0  0  0  0  0  0  0  0  0  0
   -0.1708    1.4333    0.0000 C   0  0  0  0  0  0  0  0  0  0  0  0
    0.5542   -2.3042    0.0000 O   0  0  0  0  0  0  0  0  0  0  0  0
    0.4875    2.7333    0.0000 C   0  0  0  0  0  0  0  0  0  0  0  0
   -0.2208    2.2833    0.0000 C   0  0  0  0  0  0  0  0  0  0  0  0
    1.2292    2.3458    0.0000 C   0  0  0  0  0  0  0  0  0  0  0  0
   -0.9000    0.2333    0.0000 C   0  0  0  0  0  0  0  0  0  0  0  0
    0.4542    3.5708    0.0000 O   0  0  0  0  0  0  0  0  0  0  0  0
   -0.9000   -1.4792    0.0000 C   0  0  0  0  0  0  0  0  0  0  0  0
    1.2667   -2.7375    0.0000 C   0  0  0  0  0  0  0  0  0  0  0  0
   -0.2833    3.9625    0.0000 C   0  0  0  0  0  0  0  0  0  0  0  0
   -1.6333   -0.2042    0.0000 C   0  0  0  0  0  0  0  0  0  0  0  0
   -1.6333   -1.0542    0.0000 C   0  0  0  0  0  0  0  0  0  0  0  0
  2  1  2  0  0  0  0
  3  1  1  0  0  0  0
  4  2  1  0  0  0  0
  5  3  2  0  0  0  0
  6  5  1  0  0  0  0
  7  2  1  0  0  0  0
  8  7  2  0  0  0  0
  9  7  1  0  0  0  0
 10  5  1  0  0  0  0
 11 12  1  0  0  0  0
 12  9  2  0  0  0  0
 13  8  1  0  0  0  0
 14  4  1  0  0  0  0
 15 11  1  0  0  0  0
 16  6  1  0  0  0  0
 17 10  1  0  0  0  0
 18 15  1  0  0  0  0
 19 14  2  0  0  0  0
 20 16  2  0  0  0  0
  4  6  2  0  0  0  0
 13 11  2  0  0  0  0
 19 20  1  0  0  0  0
M  END
>  <ID> (6038917)
6038917

>  <Supplier> (6038917)
ChemBridge

>  <clogP> (6038917)
3.240000000000000e+000

>  <RB> (6038917)
1

>  <tPSA> (6038917)
4.424000000000000e+001

>  <Hacc> (6038917)
4

>  <Hdon> (6038917)
0

>  <LogSw> (6038917)
-3.910000000000000e+000

>  <Group> (6038917)
3

>  <Core> (6038917)
339

$$$$
9034438
  -ISIS-  03310818282D

 22 23  0  0  0  0  0  0  0  0999 V2000
    3.7792    0.4208    0.0000 S   0  0  3  0  0  0  0  0  0  0  0  0
    4.3875    0.8625    0.0000 C   0  0  0  0  0  0  0  0  0  0  0  0
    5.1000    0.6333    0.0000 C   0  0  0  0  0  0  0  0  0  0  0  0
    5.5417    1.2375    0.0000 C   0  0  0  0  0  0  0  0  0  0  0  0
    6.2917    1.2375    0.0000 C   0  0  0  0  0  0  0  0  0  0  0  0
    5.1000    1.8458    0.0000 S   0  0  0  0  0  0  0  0  0  0  0  0
    4.3875    1.6125    0.0000 C   0  0  0  0  0  0  0  0  0  0  0  0
    6.6667    1.8958    0.0000 N   0  0  0  0  0  0  0  0  0  0  0  0
    3.2542   -0.1167    0.0000 O   0  0  0  0  0  0  0  0  0  0  0  0
    4.2667   -0.1417    0.0000 O   0  0  0  0  0  0  0  0  0  0  0  0
    3.1917    0.8958    0.0000 N   0  0  0  0  0  0  0  0  0  0  0  0
    6.6667    0.5875    0.0000 O   0  0  0  0  0  0  0  0  0  0  0  0
    7.4167    1.8958    0.0000 C   0  0  0  0  0  0  0  0  0  0  0  0
    2.4917    0.6250    0.0000 C   0  0  0  0  0  0  0  0  0  0  0  0
    1.2125    0.8250    0.0000 O   0  0  0  0  0  0  0  0  0  0  0  0
    1.9125    1.0958    0.0000 C   0  0  0  0  0  0  0  0  0  0  0  0
    7.7917    1.2375    0.0000 C   0  0  0  0  0  0  0  0  0  0  0  0
    7.7917    2.5333    0.0000 C   0  0  0  0  0  0  0  0  0  0  0  0
    0.6292    1.3000    0.0000 C   0  0  0  0  0  0  0  0  0  0  0  0
    8.5417    2.5333    0.0000 C   0  0  0  0  0  0  0  0  0  0  0  0
    8.5417    1.2375    0.0000 C   0  0  0  0  0  0  0  0  0  0  0  0
    8.9167    1.8958    0.0000 C   0  0  0  0  0  0  0  0  0  0  0  0
  2  1  1  0  0  0  0
  3  2  1  0  0  0  0
  4  3  2  0  0  0  0
  5  4  1  0  0  0  0
  6  7  1  0  0  0  0
  7  2  2  0  0  0  0
  8  5  1  0  0  0  0
  9  1  2  0  0  0  0
 10  1  2  0  0  0  0
 11  1  1  0  0  0  0
 12  5  2  0  0  0  0
 13  8  1  0  0  0  0
 14 11  1  0  0  0  0
 15 16  1  0  0  0  0
 16 14  1  0  0  0  0
 17 13  2  0  0  0  0
 18 13  1  0  0  0  0
 19 15  1  0  0  0  0
 20 18  2  0  0  0  0
 21 17  1  0  0  0  0
 22 20  1  0  0  0  0
  4  6  1  0  0  0  0
 22 21  2  0  0  0  0
M  END
>  <ID> (9034438)
9034438

>  <Supplier> (9034438)
ChemBridge

>  <clogP> (9034438)
1.866000000000000e+000

>  <RB> (9034438)
5

>  <tPSA> (9034438)
8.450000000000004e+001

>  <Hacc> (9034438)
5

>  <Hdon> (9034438)
2

>  <LogSw> (9034438)
-3.276000000000000e+000

>  <Group> (9034438)
2

>  <Core> (9034438)
534

$$$$
9034439
  -ISIS-  03310818282D

 21 22  0  0  0  0  0  0  0  0999 V2000
    5.8292    3.5250    0.0000 S   0  0  3  0  0  0  0  0  0  0  0  0
    5.3000    4.0417    0.0000 N   0  0  3  0  0  0  0  0  0  0  0  0
    5.4542    2.8750    0.0000 C   0  0  0  0  0  0  0  0  0  0  0  0
    5.4167    4.7917    0.0000 N   0  0  0  0  0  0  0  0  0  0  0  0
    4.5542    3.9375    0.0000 C   0  0  0  0  0  0  0  0  0  0  0  0
    4.2167    4.5917    0.0000 C   0  0  0  0  0  0  0  0  0  0  0  0
    4.7042    2.8750    0.0000 C   0  0  0  0  0  0  0  0  0  0  0  0
    6.4417    3.0958    0.0000 O   0  0  0  0  0  0  0  0  0  0  0  0
    6.3125    4.0917    0.0000 O   0  0  0  0  0  0  0  0  0  0  0  0
    4.7500    5.1292    0.0000 C   0  0  0  0  0  0  0  0  0  0  0  0
    5.8292    2.2250    0.0000 C   0  0  0  0  0  0  0  0  0  0  0  0
    5.4542    1.5750    0.0000 C   0  0  0  0  0  0  0  0  0  0  0  0
    4.3292    2.2250    0.0000 C   0  0  0  0  0  0  0  0  0  0  0  0
    4.7042    1.5750    0.0000 C   0  0  0  0  0  0  0  0  0  0  0  0
    6.5792    2.2250    0.0000 O   0  0  0  0  0  0  0  0  0  0  0  0
    3.5792    2.2250    0.0000 O   0  0  0  0  0  0  0  0  0  0  0  0
    4.6292    5.8667    0.0000 C   0  0  0  0  0  0  0  0  0  0  0  0
    6.9542    1.5750    0.0000 C   0  0  0  0  0  0  0  0  0  0  0  0
    3.2042    1.5750    0.0000 C   0  0  0  0  0  0  0  0  0  0  0  0
    7.7042    1.5750    0.0000 C   0  0  0  0  0  0  0  0  0  0  0  0
    2.4542    1.5750    0.0000 C   0  0  0  0  0  0  0  0  0  0  0  0
  2  1  1  0  0  0  0
  3  1  1  0  0  0  0
  4  2  1  0  0  0  0
  5  2  1  0  0  0  0
  6  5  2  0  0  0  0
  7  3  1  0  0  0  0
  8  1  2  0  0  0  0
  9  1  2  0  0  0  0
 10  4  2  0  0  0  0
 11  3  2  0  0  0  0
 12 11  1  0  0  0  0
 13  7  2  0  0  0  0
 14 12  2  0  0  0  0
 15 11  1  0  0  0  0
 16 13  1  0  0  0  0
 17 10  1  0  0  0  0
 18 15  1  0  0  0  0
 19 16  1  0  0  0  0
 20 18  1  0  0  0  0
 21 19  1  0  0  0  0
  6 10  1  0  0  0  0
 14 13  1  0  0  0  0
M  END
>  <ID> (9034439)
9034439

>  <Supplier> (9034439)
ChemBridge

>  <clogP> (9034439)
1.840000000000000e+000

>  <RB> (9034439)
1

>  <tPSA> (9034439)
7.042000000000000e+001

>  <Hacc> (9034439)
5

>  <Hdon> (9034439)
0

>  <LogSw> (9034439)
-3.035000000000000e+000

>  <Group> (9034439)
2

$$$$
9068047
  -ISIS-  03310818292D

 25 27  0  0  0  0  0  0  0  0999 V2000
    4.2667    2.1833    0.0000 C   0  0  0  0  0  0  0  0  0  0  0  0
    4.9792    1.9458    0.0000 N   0  0  0  0  0  0  0  0  0  0  0  0
    5.4250    2.5583    0.0000 C   0  0  0  0  0  0  0  0  0  0  0  0
    4.9792    3.1708    0.0000 N   0  0  0  0  0  0  0  0  0  0  0  0
    3.6625    1.7375    0.0000 C   0  0  0  0  0  0  0  0  0  0  0  0
    4.2667    2.9333    0.0000 O   0  0  0  0  0  0  0  0  0  0  0  0
    6.1750    2.5583    0.0000 C   0  0  0  0  0  0  0  0  0  0  0  0
    2.9792    2.0458    0.0000 N   0  0  0  0  0  0  0  0  0  0  0  0
    6.5500    1.9083    0.0000 C   0  0  0  0  0  0  0  0  0  0  0  0
    7.3000    1.9083    0.0000 C   0  0  0  0  0  0  0  0  0  0  0  0
    3.7417    0.9958    0.0000 O   0  0  0  0  0  0  0  0  0  0  0  0
    7.6750    2.5583    0.0000 C   0  0  0  0  0  0  0  0  0  0  0  0
    6.5500    3.2083    0.0000 C   0  0  0  0  0  0  0  0  0  0  0  0
    7.3000    3.2083    0.0000 C   0  0  0  0  0  0  0  0  0  0  0  0
    2.3667    1.6083    0.0000 C   0  0  3  0  0  0  0  0  0  0  0  0
    7.6750    1.2583    0.0000 O   0  0  0  0  0  0  0  0  0  0  0  0
    8.4250    2.5583    0.0000 O   0  0  0  0  0  0  0  0  0  0  0  0
    7.3000    0.6083    0.0000 C   0  0  0  0  0  0  0  0  0  0  0  0
    8.8000    3.2083    0.0000 C   0  0  0  0  0  0  0  0  0  0  0  0
    1.7125    1.9583    0.0000 C   0  0  0  0  0  0  0  0  0  0  0  0
    2.5042    0.8708    0.0000 C   0  0  0  0  0  0  0  0  0  0  0  0
    2.0042    0.3000    0.0000 C   0  0  0  0  0  0  0  0  0  0  0  0
    1.0167    1.6625    0.0000 C   0  0  0  0  0  0  0  0  0  0  0  0
    1.2625    0.3333    0.0000 C   0  0  0  0  0  0  0  0  0  0  0  0
    0.8250    0.9458    0.0000 C   0  0  0  0  0  0  0  0  0  0  0  0
  2  1  2  0  0  0  0
  3  2  1  0  0  0  0
  4  6  1  0  0  0  0
  5  1  1  0  0  0  0
  6  1  1  0  0  0  0
  7  3  1  0  0  0  0
  8  5  1  0  0  0  0
  9  7  2  0  0  0  0
 10  9  1  0  0  0  0
 11  5  2  0  0  0  0
 12 14  1  0  0  0  0
 13  7  1  0  0  0  0
 14 13  2  0  0  0  0
 15  8  1  0  0  0  0
 16 10  1  0  0  0  0
 17 12  1  0  0  0  0
 18 16  1  0  0  0  0
 19 17  1  0  0  0  0
 20 15  1  0  0  0  0
 21 15  1  0  0  0  0
 22 21  1  0  0  0  0
 23 20  1  0  0  0  0
 24 22  1  0  0  0  0
 25 23  1  0  0  0  0
  3  4  2  0  0  0  0
 25 24  1  0  0  0  0
 10 12  2  0  0  0  0
M  END
>  <ID> (9068047)
9068047

>  <Supplier> (9068047)
ChemBridge

>  <clogP> (9068047)
3.892000000000000e+000

>  <RB> (9068047)
3

>  <tPSA> (9068047)
8.647999999999999e+001

>  <Hacc> (9068047)
6

>  <Hdon> (9068047)
1

>  <LogSw> (9068047)
-4.706000000000000e+000

>  <Group> (9068047)
1

>  <Core> (9068047)
203

$$$$
9068040
  -ISIS-  03310818292D

 28 30  0  0  0  0  0  0  0  0999 V2000
    9.8000    2.1875    0.0000 N   0  0  0  0  0  0  0  0  0  0  0  0
   10.5125    2.4208    0.0000 C   0  0  0  0  0  0  0  0  0  0  0  0
    9.3542    2.7958    0.0000 C   0  0  0  0  0  0  0  0  0  0  0  0
   10.5125    3.1708    0.0000 N   0  0  0  0  0  0  0  0  0  0  0  0
    7.4792    2.1458    0.0000 C   0  0  0  0  0  0  0  0  0  0  0  0
    7.1042    1.4958    0.0000 C   0  0  0  0  0  0  0  0  0  0  0  0
    9.8000    3.4000    0.0000 O   0  0  0  0  0  0  0  0  0  0  0  0
    8.2292    2.1458    0.0000 N   0  0  3  0  0  0  0  0  0  0  0  0
   11.1167    1.9833    0.0000 C   0  0  0  0  0  0  0  0  0  0  0  0
    8.6042    2.7958    0.0000 C   0  0  0  0  0  0  0  0  0  0  0  0
    6.3542    1.4958    0.0000 C   0  0  0  0  0  0  0  0  0  0  0  0
    7.4792    0.8458    0.0000 C   0  0  0  0  0  0  0  0  0  0  0  0
    7.1042    2.7958    0.0000 O   0  0  0  0  0  0  0  0  0  0  0  0
    6.3542    0.1958    0.0000 C   0  0  0  0  0  0  0  0  0  0  0  0
    7.1042    0.1958    0.0000 C   0  0  0  0  0  0  0  0  0  0  0  0
    5.9792    0.8458    0.0000 C   0  0  0  0  0  0  0  0  0  0  0  0
   11.0417    1.2333    0.0000 C   0  0  0  0  0  0  0  0  0  0  0  0
   11.6417    0.7958    0.0000 C   0  0  0  0  0  0  0  0  0  0  0  0
    7.4792   -0.4542    0.0000 O   0  0  0  0  0  0  0  0  0  0  0  0
    5.2292    0.8458    0.0000 O   0  0  0  0  0  0  0  0  0  0  0  0
    8.6042    1.4958    0.0000 C   0  0  0  0  0  0  0  0  0  0  0  0
   11.8042    2.2833    0.0000 C   0  0  0  0  0  0  0  0  0  0  0  0
   12.4125    1.8458    0.0000 C   0  0  0  0  0  0  0  0  0  0  0  0
   12.3292    1.0958    0.0000 C   0  0  0  0  0  0  0  0  0  0  0  0
   11.5667    0.0458    0.0000 C   0  0  0  0  0  0  0  0  0  0  0  0
    4.8542    0.1958    0.0000 C   0  0  0  0  0  0  0  0  0  0  0  0
    7.1042   -1.1042    0.0000 C   0  0  0  0  0  0  0  0  0  0  0  0
    9.3542    1.4958    0.0000 C   0  0  0  0  0  0  0  0  0  0  0  0
  2  1  1  0  0  0  0
  3  1  2  0  0  0  0
  4  2  2  0  0  0  0
  5  8  1  0  0  0  0
  6  5  1  0  0  0  0
  7  3  1  0  0  0  0
  8 10  1  0  0  0  0
  9  2  1  0  0  0  0
 10  3  1  0  0  0  0
 11  6  1  0  0  0  0
 12  6  2  0  0  0  0
 13  5  2  0  0  0  0
 14 15  2  0  0  0  0
 15 12  1  0  0  0  0
 16 11  2  0  0  0  0
 17  9  2  0  0  0  0
 18 17  1  0  0  0  0
 19 15  1  0  0  0  0
 20 16  1  0  0  0  0
 21  8  1  0  0  0  0
 22  9  1  0  0  0  0
 23 22  2  0  0  0  0
 24 23  1  0  0  0  0
 25 18  1  0  0  0  0
 26 20  1  0  0  0  0
 27 19  1  0  0  0  0
 28 21  1  0  0  0  0
  4  7  1  0  0  0  0
 18 24  2  0  0  0  0
 14 16  1  0  0  0  0
M  END
>  <ID> (9068040)
9068040

>  <Supplier> (9068040)
ChemBridge

>  <clogP> (9068040)
3.521000000000000e+000

>  <RB> (9068040)
4

>  <tPSA> (9068040)
7.769000000000000e+001

>  <Hacc> (9068040)
6

>  <Hdon> (9068040)
0

>  <LogSw> (9068040)
-4.653999999999996e+000

>  <Group> (9068040)
2

>  <Core> (9068040)
204

$$$$
7524057
  -ISIS-  03310818262D

 20 21  0  0  0  0  0  0  0  0999 V2000
    3.9000   -0.4792    0.0000 C   0  0  0  0  0  0  0  0  0  0  0  0
    3.7750    0.2583    0.0000 C   0  0  0  0  0  0  0  0  0  0  0  0
    3.2375   -0.8250    0.0000 N   0  0  0  0  0  0  0  0  0  0  0  0
    4.6000   -0.7417    0.0000 C   0  0  0  0  0  0  0  0  0  0  0  0
    3.0375    0.3708    0.0000 C   0  0  0  0  0  0  0  0  0  0  0  0
    2.7042   -0.2875    0.0000 N   0  0  3  0  0  0  0  0  0  0  0  0
    4.7292   -1.4792    0.0000 N   0  0  0  0  0  0  0  0  0  0  0  0
    5.1792   -0.2625    0.0000 O   0  0  0  0  0  0  0  0  0  0  0  0
    3.0042   -2.9167    0.0000 C   0  0  0  0  0  0  0  0  0  0  0  0
    4.3042    0.7958    0.0000 Cl  0  0  0  0  0  0  0  0  0  0  0  0
    4.1500   -1.9667    0.0000 C   0  0  0  0  0  0  0  0  0  0  0  0
    3.7042   -3.1792    0.0000 C   0  0  0  0  0  0  0  0  0  0  0  0
    2.8667   -2.1917    0.0000 C   0  0  0  0  0  0  0  0  0  0  0  0
    2.4292   -3.3917    0.0000 C   0  0  3  0  0  0  0  0  0  0  0  0
    3.4500   -1.7042    0.0000 C   0  0  0  0  0  0  0  0  0  0  0  0
    4.2792   -2.7042    0.0000 C   0  0  0  0  0  0  0  0  0  0  0  0
    1.9542   -0.3875    0.0000 C   0  0  0  0  0  0  0  0  0  0  0  0
    2.5542   -4.1292    0.0000 C   0  0  0  0  0  0  0  0  0  0  0  0
    1.7250   -3.1375    0.0000 C   0  0  0  0  0  0  0  0  0  0  0  0
    1.9792   -4.6167    0.0000 C   0  0  0  0  0  0  0  0  0  0  0  0
  2  1  1  0  0  0  0
  3  1  2  0  0  0  0
  4  1  1  0  0  0  0
  5  2  2  0  0  0  0
  6  3  1  0  0  0  0
  7  4  1  0  0  0  0
  8  4  2  0  0  0  0
  9 12  2  0  0  0  0
 10  2  1  0  0  0  0
 11  7  1  0  0  0  0
 12 16  1  0  0  0  0
 13 15  2  0  0  0  0
 14  9  1  0  0  0  0
 15 11  1  0  0  0  0
 16 11  2  0  0  0  0
 17  6  1  0  0  0  0
 18 14  1  0  0  0  0
 19 14  1  0  0  0  0
 20 18  1  0  0  0  0
  5  6  1  0  0  0  0
 13  9  1  0  0  0  0
M  END
>  <ID> (7524057)
7524057

>  <Supplier> (7524057)
ChemBridge

>  <clogP> (7524057)
3.202000000000000e+000

>  <RB> (7524057)
3

>  <tPSA> (7524057)
4.692000000000000e+001

>  <Hacc> (7524057)
2

>  <Hdon> (7524057)
1

>  <LogSw> (7524057)
-5.211000000000000e+000

>  <Group> (7524057)
2

$$$$
5754938
  -ISIS-  03310818222D

 28 31  0  0  0  0  0  0  0  0999 V2000
    2.4417    0.5500    0.0000 C   0  0  0  0  0  0  0  0  0  0  0  0
    2.0000   -0.0500    0.0000 N   0  0  0  0  0  0  0  0  0  0  0  0
    5.7750   -4.0292    0.0000 N   0  3  0  0  0  0  0  0  0  0  0  0
    2.0042    1.1625    0.0000 O   0  0  0  0  0  0  0  0  0  0  0  0
    1.2875    0.1875    0.0000 C   0  0  0  0  0  0  0  0  0  0  0  0
    3.1917    0.5458    0.0000 C   0  0  0  0  0  0  0  0  0  0  0  0
    4.3000   -1.4167    0.0000 C   0  0  0  0  0  0  0  0  0  0  0  0
    4.6792   -0.7667    0.0000 N   0  0  0  0  0  0  0  0  0  0  0  0
    3.5667   -0.1125    0.0000 C   0  0  0  0  0  0  0  0  0  0  0  0
    4.3167   -0.1167    0.0000 C   0  0  0  0  0  0  0  0  0  0  0  0
    1.2917    0.9375    0.0000 C   0  0  0  0  0  0  0  0  0  0  0  0
    5.4042   -3.3792    0.0000 C   0  0  0  0  0  0  0  0  0  0  0  0
    0.6375   -0.1792    0.0000 N   0  0  0  0  0  0  0  0  0  0  0  0
    5.3917   -4.6792    0.0000 O   0  5  0  0  0  0  0  0  0  0  0  0
    4.6667   -2.0667    0.0000 C   0  0  0  0  0  0  0  0  0  0  0  0
    6.5250   -4.0417    0.0000 O   0  0  0  0  0  0  0  0  0  0  0  0
    3.5500   -1.4042    0.0000 O   0  0  0  0  0  0  0  0  0  0  0  0
    5.7875   -2.7292    0.0000 C   0  0  0  0  0  0  0  0  0  0  0  0
    4.6542   -3.3667    0.0000 C   0  0  0  0  0  0  0  0  0  0  0  0
    5.4167   -2.0792    0.0000 C   0  0  0  0  0  0  0  0  0  0  0  0
    4.2875   -2.7167    0.0000 C   0  0  0  0  0  0  0  0  0  0  0  0
    3.5792    1.1875    0.0000 C   0  0  0  0  0  0  0  0  0  0  0  0
    4.6917    0.5250    0.0000 C   0  0  0  0  0  0  0  0  0  0  0  0
    3.1792   -0.7542    0.0000 C   0  0  0  0  0  0  0  0  0  0  0  0
    4.3292    1.1833    0.0000 C   0  0  0  0  0  0  0  0  0  0  0  0
    0.6500    1.3208    0.0000 C   0  0  0  0  0  0  0  0  0  0  0  0
   -0.0083    0.2000    0.0000 C   0  0  0  0  0  0  0  0  0  0  0  0
    0.0000    0.9500    0.0000 C   0  0  0  0  0  0  0  0  0  0  0  0
  2  1  2  0  0  0  0
  3 12  1  0  0  0  0
  4  1  1  0  0  0  0
  5  2  1  0  0  0  0
  6  1  1  0  0  0  0
  7  8  1  0  0  0  0
  8 10  1  0  0  0  0
  9  6  1  0  0  0  0
 10  9  2  0  0  0  0
 11  4  1  0  0  0  0
 12 19  1  0  0  0  0
 13  5  1  0  0  0  0
 14  3  1  0  0  0  0
 15  7  1  0  0  0  0
 16  3  2  0  0  0  0
 17  7  2  0  0  0  0
 18 20  1  0  0  0  0
 19 21  2  0  0  0  0
 20 15  2  0  0  0  0
 21 15  1  0  0  0  0
 22  6  2  0  0  0  0
 23 25  2  0  0  0  0
 24  9  1  0  0  0  0
 25 22  1  0  0  0  0
 26 11  1  0  0  0  0
 27 13  2  0  0  0  0
 28 26  2  0  0  0  0
 11  5  2  0  0  0  0
 10 23  1  0  0  0  0
 28 27  1  0  0  0  0
 12 18  2  0  0  0  0
M  CHG  2   3   1  14  -1
M  END
>  <ID> (5754938)
5754938

>  <Supplier> (5754938)
ChemBridge

>  <clogP> (5754938)
2.700000000000000e+000

>  <RB> (5754938)
3

>  <tPSA> (5754938)
1.111600000000000e+002

>  <Hacc> (5754938)
6

>  <Hdon> (5754938)
1

>  <LogSw> (5754938)
-4.624999999999997e+000

>  <Group> (5754938)
1

>  <Core> (5754938)
069

$$$$
7886009
  -ISIS-  03310818272D

 25 27  0  0  0  0  0  0  0  0999 V2000
   -0.3083    2.8125    0.0000 C   0  0  0  0  0  0  0  0  0  0  0  0
    2.9417    3.1875    0.0000 N   0  0  3  0  0  0  0  0  0  0  0  0
    3.5917    2.8125    0.0000 C   0  0  0  0  0  0  0  0  0  0  0  0
    1.6417    3.9375    0.0000 N   0  0  3  0  0  0  0  0  0  0  0  0
    0.3417    3.1875    0.0000 N   0  0  0  0  0  0  0  0  0  0  0  0
   -0.3083    2.0625    0.0000 C   0  0  0  0  0  0  0  0  0  0  0  0
    0.3417    3.9375    0.0000 C   0  0  0  0  0  0  0  0  0  0  0  0
    0.9917    4.3042    0.0000 C   0  0  0  0  0  0  0  0  0  0  0  0
   -0.9125    1.6208    0.0000 S   0  0  0  0  0  0  0  0  0  0  0  0
    2.9417    3.9375    0.0000 C   0  0  0  0  0  0  0  0  0  0  0  0
    2.2917    2.8125    0.0000 C   0  0  0  0  0  0  0  0  0  0  0  0
    2.2917    4.3042    0.0000 C   0  0  0  0  0  0  0  0  0  0  0  0
    1.6417    3.1875    0.0000 C   0  0  0  0  0  0  0  0  0  0  0  0
    4.2417    3.1875    0.0000 O   0  0  0  0  0  0  0  0  0  0  0  0
    0.3042    1.6208    0.0000 C   0  0  0  0  0  0  0  0  0  0  0  0
   -0.9583    3.1875    0.0000 O   0  0  0  0  0  0  0  0  0  0  0  0
   -0.6833    0.9083    0.0000 C   0  0  0  0  0  0  0  0  0  0  0  0
    0.0667    0.9083    0.0000 C   0  0  0  0  0  0  0  0  0  0  0  0
    3.5917    2.0625    0.0000 C   0  0  3  0  0  0  0  0  0  0  0  0
   -0.3083    4.3042    0.0000 C   0  0  0  0  0  0  0  0  0  0  0  0
    0.9917    5.0542    0.0000 C   0  0  0  0  0  0  0  0  0  0  0  0
    4.2417    1.6875    0.0000 C   0  0  0  0  0  0  0  0  0  0  0  0
    2.9417    1.6875    0.0000 C   0  0  0  0  0  0  0  0  0  0  0  0
   -0.3083    5.0542    0.0000 C   0  0  0  0  0  0  0  0  0  0  0  0
    0.3417    5.4292    0.0000 C   0  0  0  0  0  0  0  0  0  0  0  0
  2 11  1  0  0  0  0
  3  2  1  0  0  0  0
  4  8  1  0  0  0  0
  5  1  1  0  0  0  0
  6  1  1  0  0  0  0
  7  5  1  0  0  0  0
  8  7  2  0  0  0  0
  9  6  1  0  0  0  0
 10 12  1  0  0  0  0
 11 13  1  0  0  0  0
 12  4  1  0  0  0  0
 13  4  1  0  0  0  0
 14  3  2  0  0  0  0
 15  6  2  0  0  0  0
 16  1  2  0  0  0  0
 17  9  1  0  0  0  0
 18 15  1  0  0  0  0
 19  3  1  0  0  0  0
 20  7  1  0  0  0  0
 21  8  1  0  0  0  0
 22 19  1  0  0  0  0
 23 19  1  0  0  0  0
 24 20  2  0  0  0  0
 25 24  1  0  0  0  0
 17 18  2  0  0  0  0
 25 21  2  0  0  0  0
 10  2  1  0  0  0  0
M  END
>  <ID> (7886009)
7886009

>  <Supplier> (7886009)
ChemBridge

>  <clogP> (7886009)
1.311000000000000e+000

>  <RB> (7886009)
3

>  <tPSA> (7886009)
5.265000000000000e+001

>  <Hacc> (7886009)
2

>  <Hdon> (7886009)
1

>  <LogSw> (7886009)
-2.926000000000000e+000

>  <Group> (7886009)
1

>  <Core> (7886009)
158

$$$$
7993537
  -ISIS-  03310818282D

 25 26  0  0  0  0  0  0  0  0999 V2000
    5.2500    2.9458    0.0000 C   0  0  3  0  0  0  0  0  0  0  0  0
    6.3750    3.5958    0.0000 C   0  0  3  0  0  0  0  0  0  0  0  0
    5.2500    4.2417    0.0000 C   0  0  0  0  0  0  0  0  0  0  0  0
    6.0000    2.9458    0.0000 C   0  0  3  0  0  0  0  0  0  0  0  0
    6.0000    4.2417    0.0000 C   0  0  3  0  0  0  0  0  0  0  0  0
    4.8750    3.5958    0.0000 C   0  0  0  0  0  0  0  0  0  0  0  0
    7.1250    3.5958    0.0000 C   0  0  0  0  0  0  0  0  0  0  0  0
    6.3750    2.3000    0.0000 C   0  0  0  0  0  0  0  0  0  0  0  0
    6.3750    4.8917    0.0000 C   0  0  0  0  0  0  0  0  0  0  0  0
    4.8750    4.8917    0.0000 O   0  0  0  0  0  0  0  0  0  0  0  0
    9.3750    3.5958    0.0000 C   0  0  3  0  0  0  0  0  0  0  0  0
    8.6250    3.5958    0.0000 C   0  0  0  0  0  0  0  0  0  0  0  0
    6.0000    5.5417    0.0000 O   0  0  0  0  0  0  0  0  0  0  0  0
    7.1250    2.3000    0.0000 O   0  0  0  0  0  0  0  0  0  0  0  0
    7.5000    4.2417    0.0000 C   0  0  0  0  0  0  0  0  0  0  0  0
    7.5000    2.9458    0.0000 C   0  0  0  0  0  0  0  0  0  0  0  0
    8.2500    2.9458    0.0000 C   0  0  0  0  0  0  0  0  0  0  0  0
    8.2500    4.2417    0.0000 C   0  0  0  0  0  0  0  0  0  0  0  0
    4.5417    2.6958    0.0000 O   0  0  0  0  0  0  0  0  0  0  0  0
    5.3792    2.2083    0.0000 C   0  0  0  0  0  0  0  0  0  0  0  0
    9.5667    4.3167    0.0000 C   0  0  0  0  0  0  0  0  0  0  0  0
    9.3125    2.8500    0.0000 C   0  0  0  0  0  0  0  0  0  0  0  0
   10.1167    3.4708    0.0000 C   0  0  0  0  0  0  0  0  0  0  0  0
    7.1250    4.8917    0.0000 C   0  0  0  0  0  0  0  0  0  0  0  0
    6.0000    1.6500    0.0000 C   0  0  0  0  0  0  0  0  0  0  0  0
  2  4  1  0  0  0  0
  3  6  1  0  0  0  0
  4  1  1  0  0  0  0
  5  3  1  0  0  0  0
  6  1  1  0  0  0  0
  7  2  1  0  0  0  0
  8  4  1  0  0  0  0
  9  5  1  0  0  0  0
 10  3  2  0  0  0  0
 11 12  1  0  0  0  0
 12 17  2  0  0  0  0
 13  9  2  0  0  0  0
 14  8  2  0  0  0  0
 15  7  1  0  0  0  0
 16  7  2  0  0  0  0
 17 16  1  0  0  0  0
 18 15  2  0  0  0  0
 19  1  1  0  0  0  0
 20  1  1  0  0  0  0
 21 11  1  0  0  0  0
 22 11  1  0  0  0  0
 23 11  1  0  0  0  0
 24  9  1  0  0  0  0
 25  8  1  0  0  0  0
  5  2  1  0  0  0  0
 12 18  1  0  0  0  0
M  END
>  <ID> (7993537)
7993537

>  <Supplier> (7993537)
ChemBridge

>  <clogP> (7993537)
2.500000000000000e+000

>  <RB> (7993537)
4

>  <tPSA> (7993537)
7.144000000000000e+001

>  <Hacc> (7993537)
4

>  <Hdon> (7993537)
1

>  <LogSw> (7993537)
-3.337000000000000e+000

>  <Group> (7993537)
2

$$$$
9026965
  -ISIS-  03310818282D

 23 24  0  0  0  0  0  0  0  0999 V2000
    0.4542    2.1583    0.0000 C   0  0  0  0  0  0  0  0  0  0  0  0
    1.1042    1.7833    0.0000 N   0  0  0  0  0  0  0  0  0  0  0  0
    1.7542    2.1583    0.0000 C   0  0  0  0  0  0  0  0  0  0  0  0
   -0.1958    1.7833    0.0000 C   0  0  0  0  0  0  0  0  0  0  0  0
   -2.7875    1.7833    0.0000 C   0  0  0  0  0  0  0  0  0  0  0  0
   -2.1375    2.1583    0.0000 N   0  0  0  0  0  0  0  0  0  0  0  0
    2.4042    1.7833    0.0000 C   0  0  0  0  0  0  0  0  0  0  0  0
    0.4542    2.9083    0.0000 O   0  0  0  0  0  0  0  0  0  0  0  0
    1.7542    2.9083    0.0000 C   0  0  0  0  0  0  0  0  0  0  0  0
   -0.8458    2.1583    0.0000 C   0  0  0  0  0  0  0  0  0  0  0  0
   -1.4875    1.7833    0.0000 C   0  0  0  0  0  0  0  0  0  0  0  0
   -2.7875    1.0333    0.0000 O   0  0  0  0  0  0  0  0  0  0  0  0
    3.0542    2.1583    0.0000 C   0  0  0  0  0  0  0  0  0  0  0  0
    2.4042    3.2833    0.0000 C   0  0  0  0  0  0  0  0  0  0  0  0
    3.0542    2.9083    0.0000 C   0  0  0  0  0  0  0  0  0  0  0  0
    2.4042    1.0333    0.0000 O   0  0  0  0  0  0  0  0  0  0  0  0
   -0.1958    1.0333    0.0000 C   0  0  0  0  0  0  0  0  0  0  0  0
   -0.8458    0.6583    0.0000 C   0  0  0  0  0  0  0  0  0  0  0  0
   -3.4375    2.1583    0.0000 C   0  0  0  0  0  0  0  0  0  0  0  0
   -1.4875    1.0333    0.0000 C   0  0  0  0  0  0  0  0  0  0  0  0
    2.4042    4.0250    0.0000 C   0  0  0  0  0  0  0  0  0  0  0  0
    3.0542    0.6583    0.0000 C   0  0  0  0  0  0  0  0  0  0  0  0
   -4.0958    1.7833    0.0000 C   0  0  0  0  0  0  0  0  0  0  0  0
  2  1  1  0  0  0  0
  3  2  1  0  0  0  0
  4  1  1  0  0  0  0
  5  6  1  0  0  0  0
  6 11  1  0  0  0  0
  7  3  1  0  0  0  0
  8  1  2  0  0  0  0
  9  3  2  0  0  0  0
 10  4  2  0  0  0  0
 11 10  1  0  0  0  0
 12  5  2  0  0  0  0
 13  7  2  0  0  0  0
 14  9  1  0  0  0  0
 15 14  2  0  0  0  0
 16  7  1  0  0  0  0
 17  4  1  0  0  0  0
 18 17  2  0  0  0  0
 19  5  1  0  0  0  0
 20 18  1  0  0  0  0
 21 14  1  0  0  0  0
 22 16  1  0  0  0  0
 23 19  1  0  0  0  0
 11 20  2  0  0  0  0
 13 15  1  0  0  0  0
M  END
>  <ID> (9026965)
9026965

>  <Supplier> (9026965)
ChemBridge

>  <clogP> (9026965)
2.477000000000000e+000

>  <RB> (9026965)
3

>  <tPSA> (9026965)
6.743000000000001e+001

>  <Hacc> (9026965)
3

>  <Hdon> (9026965)
2

>  <LogSw> (9026965)
-3.593000000000000e+000

>  <Group> (9026965)
2

>  <Core> (9026965)
146

$$$$
7993535
  -ISIS-  03310818282D

 15 16  0  0  0  0  0  0  0  0999 V2000
    2.4542    1.7833    0.0000 C   0  0  0  0  0  0  0  0  0  0  0  0
    2.7667    1.0958    0.0000 C   0  0  0  0  0  0  0  0  0  0  0  0
    3.5125    1.1708    0.0000 N   0  0  0  0  0  0  0  0  0  0  0  0
    1.7250    1.9333    0.0000 C   0  0  0  0  0  0  0  0  0  0  0  0
    3.0167    2.2833    0.0000 C   0  0  0  0  0  0  0  0  0  0  0  0
    3.6667    1.9083    0.0000 C   0  0  0  0  0  0  0  0  0  0  0  0
    1.4917    2.6458    0.0000 C   0  0  0  0  0  0  0  0  0  0  0  0
    1.2250    1.3750    0.0000 O   0  0  0  0  0  0  0  0  0  0  0  0
    0.7625    2.8083    0.0000 O   0  0  0  0  0  0  0  0  0  0  0  0
    1.9917    3.2083    0.0000 N   0  0  0  0  0  0  0  0  0  0  0  0
    2.3917    0.4458    0.0000 C   0  0  0  0  0  0  0  0  0  0  0  0
    3.0167    3.0333    0.0000 C   0  0  0  0  0  0  0  0  0  0  0  0
    4.3167    2.2833    0.0000 C   0  0  0  0  0  0  0  0  0  0  0  0
    3.6667    3.4083    0.0000 C   0  0  0  0  0  0  0  0  0  0  0  0
    4.3167    3.0333    0.0000 C   0  0  0  0  0  0  0  0  0  0  0  0
  2  1  2  0  0  0  0
  3  2  1  0  0  0  0
  4  1  1  0  0  0  0
  5  1  1  0  0  0  0
  6  5  2  0  0  0  0
  7  4  1  0  0  0  0
  8  4  2  0  0  0  0
  9  7  2  0  0  0  0
 10  7  1  0  0  0  0
 11  2  1  0  0  0  0
 12  5  1  0  0  0  0
 13  6  1  0  0  0  0
 14 12  2  0  0  0  0
 15 14  1  0  0  0  0
  3  6  1  0  0  0  0
 13 15  2  0  0  0  0
M  END
>  <ID> (7993535)
7993535

>  <Supplier> (7993535)
ChemBridge

>  <clogP> (7993535)
-2.300000000000000e-001

>  <RB> (7993535)
2

>  <tPSA> (7993535)
7.595000000000000e+001

>  <Hacc> (7993535)
2

>  <Hdon> (7993535)
2

>  <LogSw> (7993535)
-1.790000000000000e+000

>  <Group> (7993535)
2

>  <Core> (7993535)
503

$$$$
5754935
  -ISIS-  03310818222D

 24 25  0  0  0  0  0  0  0  0999 V2000
    0.9542    0.2833    0.0000 C   0  0  0  0  0  0  0  0  0  0  0  0
   -1.1625   -0.4542    0.0000 S   0  0  3  0  0  0  0  0  0  0  0  0
    1.3792    1.0208    0.0000 N   0  3  0  0  0  0  0  0  0  0  0  0
    1.3792   -0.4375    0.0000 C   0  0  0  0  0  0  0  0  0  0  0  0
    0.1167    0.2833    0.0000 C   0  0  0  0  0  0  0  0  0  0  0  0
   -0.3208   -0.4542    0.0000 C   0  0  0  0  0  0  0  0  0  0  0  0
    2.2167   -0.4375    0.0000 N   0  0  3  0  0  0  0  0  0  0  0  0
    0.9542   -1.1792    0.0000 C   0  0  0  0  0  0  0  0  0  0  0  0
   -1.1625    0.4000    0.0000 O   0  0  0  0  0  0  0  0  0  0  0  0
   -1.1625   -1.3000    0.0000 O   0  0  0  0  0  0  0  0  0  0  0  0
    2.2167    1.0208    0.0000 O   0  5  0  0  0  0  0  0  0  0  0  0
    0.9542    1.7458    0.0000 O   0  0  0  0  0  0  0  0  0  0  0  0
   -2.0000   -0.4542    0.0000 N   0  0  0  0  0  0  0  0  0  0  0  0
    0.1167   -1.1792    0.0000 C   0  0  0  0  0  0  0  0  0  0  0  0
    2.5167   -1.2167    0.0000 C   0  0  0  0  0  0  0  0  0  0  0  0
    2.6375    0.3000    0.0000 C   0  0  0  0  0  0  0  0  0  0  0  0
   -2.4208   -1.1792    0.0000 C   0  0  0  0  0  0  0  0  0  0  0  0
   -3.2625   -1.1542    0.0000 C   0  0  0  0  0  0  0  0  0  0  0  0
   -3.6833   -1.9000    0.0000 C   0  0  0  0  0  0  0  0  0  0  0  0
    3.3167   -1.4542    0.0000 C   0  0  0  0  0  0  0  0  0  0  0  0
    3.4542    0.4208    0.0000 C   0  0  0  0  0  0  0  0  0  0  0  0
   -4.5208   -1.9000    0.0000 C   0  0  0  0  0  0  0  0  0  0  0  0
    4.0792   -0.1792    0.0000 C   0  0  0  0  0  0  0  0  0  0  0  0
    3.9792   -0.9792    0.0000 C   0  0  0  0  0  0  0  0  0  0  0  0
  2  6  1  0  0  0  0
  3  1  1  0  0  0  0
  4  1  1  0  0  0  0
  5  1  2  0  0  0  0
  6  5  1  0  0  0  0
  7  4  1  0  0  0  0
  8  4  2  0  0  0  0
  9  2  2  0  0  0  0
 10  2  2  0  0  0  0
 11  3  1  0  0  0  0
 12  3  2  0  0  0  0
 13  2  1  0  0  0  0
 14  6  2  0  0  0  0
 15  7  1  0  0  0  0
 16  7  1  0  0  0  0
 17 13  1  0  0  0  0
 18 17  1  0  0  0  0
 19 18  1  0  0  0  0
 20 15  1  0  0  0  0
 21 16  1  0  0  0  0
 22 19  1  0  0  0  0
 23 21  1  0  0  0  0
 24 20  1  0  0  0  0
  8 14  1  0  0  0  0
 23 24  1  0  0  0  0
M  CHG  2   3   1  11  -1
M  END
>  <ID> (5754935)
5754935

>  <Supplier> (5754935)
ChemBridge

>  <clogP> (5754935)
4.790000000000000e+000

>  <RB> (5754935)
3

>  <tPSA> (5754935)
9.255000000000003e+001

>  <Hacc> (5754935)
5

>  <Hdon> (5754935)
1

>  <LogSw> (5754935)
-6.272000000000000e+000

>  <Group> (5754935)
3

$$$$
7169727
  -ISIS-  03310818252D

 29 31  0  0  0  0  0  0  0  0999 V2000
    2.8500   -1.7792    0.0000 S   0  0  3  0  0  0  0  0  0  0  0  0
    2.8500   -0.9542    0.0000 N   0  0  3  0  0  0  0  0  0  0  0  0
    3.5625   -0.5375    0.0000 C   0  0  0  0  0  0  0  0  0  0  0  0
    2.1292   -0.5417    0.0000 C   0  0  0  0  0  0  0  0  0  0  0  0
    4.2792   -0.9500    0.0000 C   0  0  0  0  0  0  0  0  0  0  0  0
    4.9917   -0.5375    0.0000 N   0  0  3  0  0  0  0  0  0  0  0  0
    1.4167   -0.9542    0.0000 C   0  0  0  0  0  0  0  0  0  0  0  0
    6.4167    0.2875    0.0000 N   0  0  3  0  0  0  0  0  0  0  0  0
    3.6750   -1.7792    0.0000 O   0  0  0  0  0  0  0  0  0  0  0  0
    3.2542   -2.4917    0.0000 O   0  0  0  0  0  0  0  0  0  0  0  0
    2.1292    0.2875    0.0000 C   0  0  0  0  0  0  0  0  0  0  0  0
    4.2792   -1.7750    0.0000 O   0  0  0  0  0  0  0  0  0  0  0  0
    5.7042   -0.9417    0.0000 C   0  0  0  0  0  0  0  0  0  0  0  0
    4.9917    0.2875    0.0000 C   0  0  0  0  0  0  0  0  0  0  0  0
    7.1292    0.7000    0.0000 C   0  0  0  0  0  0  0  0  0  0  0  0
    1.4167    0.7000    0.0000 C   0  0  0  0  0  0  0  0  0  0  0  0
    0.7042   -0.5417    0.0000 C   0  0  0  0  0  0  0  0  0  0  0  0
    5.7042    0.7083    0.0000 C   0  0  0  0  0  0  0  0  0  0  0  0
    6.4167   -0.5375    0.0000 C   0  0  0  0  0  0  0  0  0  0  0  0
    2.1292   -2.1875    0.0000 C   0  0  0  0  0  0  0  0  0  0  0  0
    2.8417    0.7083    0.0000 Cl  0  0  0  0  0  0  0  0  0  0  0  0
    0.7042    0.2875    0.0000 C   0  0  0  0  0  0  0  0  0  0  0  0
   -0.0125   -0.9500    0.0000 Cl  0  0  0  0  0  0  0  0  0  0  0  0
    7.8417    0.2833    0.0000 C   0  0  0  0  0  0  0  0  0  0  0  0
    7.8375   -0.5417    0.0000 C   0  0  0  0  0  0  0  0  0  0  0  0
    8.5542    0.6958    0.0000 C   0  0  0  0  0  0  0  0  0  0  0  0
    8.5417   -0.9542    0.0000 C   0  0  0  0  0  0  0  0  0  0  0  0
    9.2667    0.2833    0.0000 C   0  0  0  0  0  0  0  0  0  0  0  0
    9.2667   -0.5500    0.0000 C   0  0  0  0  0  0  0  0  0  0  0  0
  2  1  1  0  0  0  0
  3  2  1  0  0  0  0
  4  2  1  0  0  0  0
  5  3  1  0  0  0  0
  6  5  1  0  0  0  0
  7  4  2  0  0  0  0
  8 18  1  0  0  0  0
  9  1  2  0  0  0  0
 10  1  2  0  0  0  0
 11  4  1  0  0  0  0
 12  5  2  0  0  0  0
 13  6  1  0  0  0  0
 14  6  1  0  0  0  0
 15  8  1  0  0  0  0
 16 11  2  0  0  0  0
 17  7  1  0  0  0  0
 18 14  1  0  0  0  0
 19 13  1  0  0  0  0
 20  1  1  0  0  0  0
 21 11  1  0  0  0  0
 22 16  1  0  0  0  0
 23 17  1  0  0  0  0
 24 15  1  0  0  0  0
 25 24  2  0  0  0  0
 26 24  1  0  0  0  0
 27 25  1  0  0  0  0
 28 26  2  0  0  0  0
 29 28  1  0  0  0  0
 17 22  2  0  0  0  0
 19  8  1  0  0  0  0
 27 29  2  0  0  0  0
M  END
>  <ID> (7169727)
7169727

>  <Supplier> (7169727)
ChemBridge

>  <clogP> (7169727)
4.010000000000000e+000

>  <RB> (7169727)
5

>  <tPSA> (7169727)
6.093000000000000e+001

>  <Hacc> (7169727)
4

>  <Hdon> (7169727)
0

>  <LogSw> (7169727)
-5.951000000000001e+000

>  <Group> (7169727)
2

>  <Core> (7169727)
557

$$$$
7993532
  -ISIS-  03310818282D

 21 23  0  0  0  0  0  0  0  0999 V2000
    2.6042    1.5458    0.0000 C   0  0  0  0  0  0  0  0  0  0  0  0
    3.1625    1.0458    0.0000 C   0  0  0  0  0  0  0  0  0  0  0  0
    3.8750    1.2833    0.0000 C   0  0  0  0  0  0  0  0  0  0  0  0
    2.6792    2.2958    0.0000 C   0  0  0  0  0  0  0  0  0  0  0  0
    1.9917    2.6000    0.0000 N   0  0  0  0  0  0  0  0  0  0  0  0
    1.8667    1.3958    0.0000 C   0  0  0  0  0  0  0  0  0  0  0  0
    4.4292    0.7750    0.0000 N   0  0  0  0  0  0  0  0  0  0  0  0
    1.4917    2.0458    0.0000 C   0  0  0  0  0  0  0  0  0  0  0  0
    4.0292    2.0208    0.0000 O   0  0  0  0  0  0  0  0  0  0  0  0
    3.0042    0.3125    0.0000 O   0  0  0  0  0  0  0  0  0  0  0  0
    5.1417    1.0083    0.0000 C   0  0  3  0  0  0  0  0  0  0  0  0
    1.4917    0.7458    0.0000 C   0  0  0  0  0  0  0  0  0  0  0  0
    0.7417    2.0458    0.0000 C   0  0  0  0  0  0  0  0  0  0  0  0
    5.6625    0.4708    0.0000 C   0  0  0  0  0  0  0  0  0  0  0  0
    5.2417    1.7500    0.0000 C   0  0  0  0  0  0  0  0  0  0  0  0
    0.7417    0.7458    0.0000 C   0  0  0  0  0  0  0  0  0  0  0  0
    0.3667    1.3958    0.0000 C   0  0  0  0  0  0  0  0  0  0  0  0
    5.8917    2.1333    0.0000 C   0  0  0  0  0  0  0  0  0  0  0  0
    6.4125    0.5333    0.0000 C   0  0  0  0  0  0  0  0  0  0  0  0
    6.8250    1.1583    0.0000 C   0  0  0  0  0  0  0  0  0  0  0  0
    6.5917    1.8708    0.0000 C   0  0  0  0  0  0  0  0  0  0  0  0
  2  1  1  0  0  0  0
  3  2  1  0  0  0  0
  4  1  2  0  0  0  0
  5  4  1  0  0  0  0
  6  1  1  0  0  0  0
  7  3  1  0  0  0  0
  8  6  2  0  0  0  0
  9  3  2  0  0  0  0
 10  2  2  0  0  0  0
 11  7  1  0  0  0  0
 12  6  1  0  0  0  0
 13  8  1  0  0  0  0
 14 11  1  0  0  0  0
 15 11  1  0  0  0  0
 16 12  2  0  0  0  0
 17 16  1  0  0  0  0
 18 15  1  0  0  0  0
 19 14  1  0  0  0  0
 20 19  1  0  0  0  0
 21 18  1  0  0  0  0
  5  8  1  0  0  0  0
 13 17  2  0  0  0  0
 21 20  1  0  0  0  0
M  END
>  <ID> (7993532)
7993532

>  <Supplier> (7993532)
ChemBridge

>  <clogP> (7993532)
3.520000000000000e+000

>  <RB> (7993532)
3

>  <tPSA> (7993532)
6.195999999999997e+001

>  <Hacc> (7993532)
2

>  <Hdon> (7993532)
2

>  <LogSw> (7993532)
-4.280000000000000e+000

>  <Group> (7993532)
2

>  <Core> (7993532)
503

$$$$
7993531
  -ISIS-  03310818282D

 19 20  0  0  0  0  0  0  0  0999 V2000
    2.5917    2.6500    0.0000 N   0  0  0  0  0  0  0  0  0  0  0  0
    2.5917    1.9000    0.0000 C   0  0  0  0  0  0  0  0  0  0  0  0
    3.2417    3.0250    0.0000 C   0  0  0  0  0  0  0  0  0  0  0  0
    3.2417    1.5250    0.0000 N   0  0  0  0  0  0  0  0  0  0  0  0
    3.8917    2.6500    0.0000 N   0  0  0  0  0  0  0  0  0  0  0  0
    3.8917    1.9000    0.0000 C   0  0  0  0  0  0  0  0  0  0  0  0
    1.9417    1.5250    0.0000 N   0  0  3  0  0  0  0  0  0  0  0  0
    3.2417    3.7750    0.0000 N   0  0  3  0  0  0  0  0  0  0  0  0
    4.5417    1.5250    0.0000 S   0  0  0  0  0  0  0  0  0  0  0  0
    0.6500    0.7750    0.0000 O   0  0  0  0  0  0  0  0  0  0  0  0
    1.9417    0.7750    0.0000 C   0  0  0  0  0  0  0  0  0  0  0  0
    1.2917    1.9000    0.0000 C   0  0  0  0  0  0  0  0  0  0  0  0
    5.1917    1.9000    0.0000 C   0  0  3  0  0  0  0  0  0  0  0  0
    3.8917    4.1417    0.0000 C   0  0  0  0  0  0  0  0  0  0  0  0
    2.5917    4.1417    0.0000 C   0  0  0  0  0  0  0  0  0  0  0  0
    1.2917    0.4000    0.0000 C   0  0  0  0  0  0  0  0  0  0  0  0
    0.6500    1.5250    0.0000 C   0  0  0  0  0  0  0  0  0  0  0  0
    5.8417    1.5250    0.0000 C   0  0  0  0  0  0  0  0  0  0  0  0
    5.1917    2.6500    0.0000 C   0  0  0  0  0  0  0  0  0  0  0  0
  2  1  1  0  0  0  0
  3  1  2  0  0  0  0
  4  2  2  0  0  0  0
  5  3  1  0  0  0  0
  6  5  2  0  0  0  0
  7  2  1  0  0  0  0
  8  3  1  0  0  0  0
  9  6  1  0  0  0  0
 10 17  1  0  0  0  0
 11  7  1  0  0  0  0
 12  7  1  0  0  0  0
 13  9  1  0  0  0  0
 14  8  1  0  0  0  0
 15  8  1  0  0  0  0
 16 11  1  0  0  0  0
 17 12  1  0  0  0  0
 18 13  1  0  0  0  0
 19 13  1  0  0  0  0
  4  6  1  0  0  0  0
 10 16  1  0  0  0  0
M  END
>  <ID> (7993531)
7993531

>  <Supplier> (7993531)
ChemBridge

>  <clogP> (7993531)
2.410000000000000e+000

>  <RB> (7993531)
2

>  <tPSA> (7993531)
5.438000000000002e+001

>  <Hacc> (7993531)
4

>  <Hdon> (7993531)
0

>  <LogSw> (7993531)
-3.325000000000000e+000

>  <Group> (7993531)
2

>  <Core> (7993531)
026

$$$$
7169724
  -ISIS-  03310818252D

 27 29  0  0  0  0  0  0  0  0999 V2000
    5.9292   -3.3875    0.0000 C   0  0  0  0  0  0  0  0  0  0  0  0
    4.7792   -3.7792    0.0000 N   0  0  3  0  0  0  0  0  0  0  0  0
    5.5042   -4.0042    0.0000 C   0  0  0  0  0  0  0  0  0  0  0  0
    4.7792   -3.0292    0.0000 N   0  0  0  0  0  0  0  0  0  0  0  0
    7.1000   -5.3042    0.0000 C   0  0  0  0  0  0  0  0  0  0  0  0
    5.4792   -2.7917    0.0000 C   0  0  0  0  0  0  0  0  0  0  0  0
    6.7375   -5.9667    0.0000 N   0  3  0  0  0  0  0  0  0  0  0  0
    7.8500   -5.2917    0.0000 C   0  0  0  0  0  0  0  0  0  0  0  0
    6.6792   -3.3667    0.0000 C   0  0  0  0  0  0  0  0  0  0  0  0
    4.1792   -4.2292    0.0000 C   0  0  0  0  0  0  0  0  0  0  0  0
    8.2042   -4.6292    0.0000 C   0  0  0  0  0  0  0  0  0  0  0  0
    7.0667   -4.0042    0.0000 C   0  0  0  0  0  0  0  0  0  0  0  0
    6.7042   -4.6667    0.0000 C   0  0  0  0  0  0  0  0  0  0  0  0
    5.9875   -5.9875    0.0000 O   0  5  0  0  0  0  0  0  0  0  0  0
    5.7417   -4.7125    0.0000 O   0  0  0  0  0  0  0  0  0  0  0  0
    7.1292   -6.6042    0.0000 O   0  0  0  0  0  0  0  0  0  0  0  0
    7.8167   -3.9917    0.0000 C   0  0  0  0  0  0  0  0  0  0  0  0
    5.6917   -2.0792    0.0000 O   0  0  0  0  0  0  0  0  0  0  0  0
    3.4917   -3.9292    0.0000 C   0  0  0  0  0  0  0  0  0  0  0  0
    8.2375   -5.9292    0.0000 O   0  0  0  0  0  0  0  0  0  0  0  0
    8.9542   -4.6167    0.0000 O   0  0  0  0  0  0  0  0  0  0  0  0
    2.8917   -4.3792    0.0000 C   0  0  0  0  0  0  0  0  0  0  0  0
    4.2667   -4.9750    0.0000 C   0  0  0  0  0  0  0  0  0  0  0  0
    3.6667   -5.4250    0.0000 C   0  0  0  0  0  0  0  0  0  0  0  0
    2.9792   -5.1250    0.0000 C   0  0  0  0  0  0  0  0  0  0  0  0
    2.2042   -4.0792    0.0000 C   0  0  0  0  0  0  0  0  0  0  0  0
    9.3417   -5.2542    0.0000 C   0  0  0  0  0  0  0  0  0  0  0  0
  2  3  1  0  0  0  0
  3  1  1  0  0  0  0
  4  6  1  0  0  0  0
  5 13  2  0  0  0  0
  6  1  1  0  0  0  0
  7  5  1  0  0  0  0
  8 11  2  0  0  0  0
  9  1  2  0  0  0  0
 10  2  1  0  0  0  0
 11 17  1  0  0  0  0
 12  9  1  0  0  0  0
 13 12  1  0  0  0  0
 14  7  1  0  0  0  0
 15  3  2  0  0  0  0
 16  7  2  0  0  0  0
 17 12  2  0  0  0  0
 18  6  2  0  0  0  0
 19 10  1  0  0  0  0
 20  8  1  0  0  0  0
 21 11  1  0  0  0  0
 22 19  2  0  0  0  0
 23 10  2  0  0  0  0
 24 23  1  0  0  0  0
 25 24  2  0  0  0  0
 26 22  1  0  0  0  0
 27 21  1  0  0  0  0
  2  4  1  0  0  0  0
  8  5  1  0  0  0  0
 25 22  1  0  0  0  0
M  CHG  2   7   1  14  -1
M  END
>  <ID> (7169724)
7169724

>  <Supplier> (7169724)
ChemBridge

>  <clogP> (7169724)
2.500000000000000e+000

>  <RB> (7169724)
2

>  <tPSA> (7169724)
1.220100000000000e+002

>  <Hacc> (7169724)
6

>  <Hdon> (7169724)
2

>  <LogSw> (7169724)
-4.028000000000000e+000

>  <Group> (7169724)
1

>  <Core> (7169724)
048

$$$$
9023554
  -ISIS-  03310818282D

 21 22  0  0  0  0  0  0  0  0999 V2000
    3.2000    2.4208    0.0000 C   0  0  0  0  0  0  0  0  0  0  0  0
    2.8250    1.7708    0.0000 C   0  0  0  0  0  0  0  0  0  0  0  0
    3.9500    2.4208    0.0000 C   0  0  0  0  0  0  0  0  0  0  0  0
    4.3250    1.7708    0.0000 S   0  0  0  0  0  0  0  0  0  0  0  0
    3.2000    1.1208    0.0000 O   0  0  0  0  0  0  0  0  0  0  0  0
    2.0667    1.7708    0.0000 N   0  0  0  0  0  0  0  0  0  0  0  0
    5.0750    1.7708    0.0000 C   0  0  0  0  0  0  0  0  0  0  0  0
    2.8250    3.0708    0.0000 C   0  0  0  0  0  0  0  0  0  0  0  0
    5.4500    1.1208    0.0000 C   0  0  0  0  0  0  0  0  0  0  0  0
    0.5750    0.4708    0.0000 O   0  0  0  0  0  0  0  0  0  0  0  0
    4.3250    3.0708    0.0000 C   0  0  0  0  0  0  0  0  0  0  0  0
    1.7000    1.1208    0.0000 C   0  0  0  0  0  0  0  0  0  0  0  0
    0.9500    1.1208    0.0000 C   0  0  0  0  0  0  0  0  0  0  0  0
    5.0750    0.4708    0.0000 C   0  0  0  0  0  0  0  0  0  0  0  0
    6.2000    1.1208    0.0000 C   0  0  0  0  0  0  0  0  0  0  0  0
   -0.1750    0.4708    0.0000 C   0  0  0  0  0  0  0  0  0  0  0  0
    3.2000    3.7208    0.0000 C   0  0  0  0  0  0  0  0  0  0  0  0
    3.9500    3.7208    0.0000 C   0  0  0  0  0  0  0  0  0  0  0  0
    5.4500   -0.1792    0.0000 C   0  0  0  0  0  0  0  0  0  0  0  0
    6.5750    0.4708    0.0000 C   0  0  0  0  0  0  0  0  0  0  0  0
    6.2000   -0.1792    0.0000 C   0  0  0  0  0  0  0  0  0  0  0  0
  2  1  1  0  0  0  0
  3  1  1  0  0  0  0
  4  3  1  0  0  0  0
  5  2  2  0  0  0  0
  6  2  1  0  0  0  0
  7  4  1  0  0  0  0
  8  1  2  0  0  0  0
  9  7  1  0  0  0  0
 10 13  1  0  0  0  0
 11  3  2  0  0  0  0
 12  6  1  0  0  0  0
 13 12  1  0  0  0  0
 14  9  2  0  0  0  0
 15  9  1  0  0  0  0
 16 10  1  0  0  0  0
 17  8  1  0  0  0  0
 18 17  2  0  0  0  0
 19 14  1  0  0  0  0
 20 15  2  0  0  0  0
 21 20  1  0  0  0  0
 18 11  1  0  0  0  0
 19 21  2  0  0  0  0
M  END
>  <ID> (9023554)
9023554

>  <Supplier> (9023554)
ChemBridge

>  <clogP> (9023554)
2.414000000000000e+000

>  <RB> (9023554)
6

>  <tPSA> (9023554)
3.833000000000000e+001

>  <Hacc> (9023554)
2

>  <Hdon> (9023554)
1

>  <LogSw> (9023554)
-3.460000000000000e+000

>  <Group> (9023554)
2

$$$$
9105607
  -ISIS-  03310818292D

 25 27  0  0  0  0  0  0  0  0999 V2000
    5.1375    3.3833    0.0000 C   0  0  0  0  0  0  0  0  0  0  0  0
    4.7625    4.0250    0.0000 N   0  0  0  0  0  0  0  0  0  0  0  0
    4.7625    2.7333    0.0000 N   0  0  0  0  0  0  0  0  0  0  0  0
    3.6375    3.3833    0.0000 N   0  0  0  0  0  0  0  0  0  0  0  0
    4.0125    4.0250    0.0000 C   0  0  0  0  0  0  0  0  0  0  0  0
    4.0125    2.7333    0.0000 C   0  0  0  0  0  0  0  0  0  0  0  0
    2.8875    2.0833    0.0000 N   0  0  3  0  0  0  0  0  0  0  0  0
    5.8875    3.3833    0.0000 N   0  0  0  0  0  0  0  0  0  0  0  0
    1.3875    2.0833    0.0000 N   0  0  3  0  0  0  0  0  0  0  0  0
    3.6375    2.0833    0.0000 C   0  0  0  0  0  0  0  0  0  0  0  0
    3.6375    4.6667    0.0000 N   0  0  0  0  0  0  0  0  0  0  0  0
    6.2625    2.7333    0.0000 C   0  0  0  0  0  0  0  0  0  0  0  0
    2.5042    1.4333    0.0000 C   0  0  0  0  0  0  0  0  0  0  0  0
    2.5042    2.7333    0.0000 C   0  0  0  0  0  0  0  0  0  0  0  0
    1.7625    1.4333    0.0000 C   0  0  0  0  0  0  0  0  0  0  0  0
    1.7625    2.7333    0.0000 C   0  0  0  0  0  0  0  0  0  0  0  0
    7.0125    1.4333    0.0000 C   0  0  0  0  0  0  0  0  0  0  0  0
    7.0125    2.7333    0.0000 C   0  0  0  0  0  0  0  0  0  0  0  0
    5.8875    2.0833    0.0000 C   0  0  0  0  0  0  0  0  0  0  0  0
    7.3875    2.0833    0.0000 C   0  0  0  0  0  0  0  0  0  0  0  0
    6.2625    1.4333    0.0000 C   0  0  0  0  0  0  0  0  0  0  0  0
    0.6375    2.0833    0.0000 C   0  0  0  0  0  0  0  0  0  0  0  0
    7.3875    0.7833    0.0000 C   0  0  0  0  0  0  0  0  0  0  0  0
    0.2625    2.7333    0.0000 C   0  0  0  0  0  0  0  0  0  0  0  0
    7.0125    0.1333    0.0000 C   0  0  0  0  0  0  0  0  0  0  0  0
  2  1  1  0  0  0  0
  3  1  2  0  0  0  0
  4  6  2  0  0  0  0
  5  2  2  0  0  0  0
  6  3  1  0  0  0  0
  7 10  1  0  0  0  0
  8  1  1  0  0  0  0
  9 16  1  0  0  0  0
 10  6  1  0  0  0  0
 11  5  1  0  0  0  0
 12  8  1  0  0  0  0
 13  7  1  0  0  0  0
 14  7  1  0  0  0  0
 15 13  1  0  0  0  0
 16 14  1  0  0  0  0
 17 21  1  0  0  0  0
 18 12  2  0  0  0  0
 19 12  1  0  0  0  0
 20 18  1  0  0  0  0
 21 19  2  0  0  0  0
 22  9  1  0  0  0  0
 23 17  1  0  0  0  0
 24 22  1  0  0  0  0
 25 23  1  0  0  0  0
  5  4  1  0  0  0  0
 17 20  2  0  0  0  0
 15  9  1  0  0  0  0
M  END
>  <ID> (9105607)
9105607

>  <Supplier> (9105607)
ChemBridge

>  <clogP> (9105607)
3.617000000000000e+000

>  <RB> (9105607)
4

>  <tPSA> (9105607)
8.320000000000000e+001

>  <Hacc> (9105607)
5

>  <Hdon> (9105607)
2

>  <LogSw> (9105607)
-3.771000000000000e+000

>  <Group> (9105607)
2

>  <Core> (9105607)
426

$$$$
7646889
  -ISIS-  03310818262D

 28 30  0  0  0  0  0  0  0  0999 V2000
    5.3417   -6.0417    0.0000 C   0  0  0  0  0  0  0  0  0  0  0  0
    6.1042   -6.3792    0.0000 C   0  0  0  0  0  0  0  0  0  0  0  0
    1.7750   -4.8042    0.0000 C   0  0  0  0  0  0  0  0  0  0  0  0
    2.4875   -5.2167    0.0000 N   0  0  3  0  0  0  0  0  0  0  0  0
    1.0667   -5.2167    0.0000 C   0  0  0  0  0  0  0  0  0  0  0  0
    5.4292   -5.2250    0.0000 S   0  0  0  0  0  0  0  0  0  0  0  0
    1.7750   -6.4417    0.0000 N   0  0  0  0  0  0  0  0  0  0  0  0
    4.6292   -6.4542    0.0000 N   0  0  0  0  0  0  0  0  0  0  0  0
    2.4875   -6.0375    0.0000 C   0  0  0  0  0  0  0  0  0  0  0  0
    6.6417   -5.7750    0.0000 C   0  0  0  0  0  0  0  0  0  0  0  0
    6.2875   -7.1917    0.0000 C   0  0  0  0  0  0  0  0  0  0  0  0
    6.2375   -5.0542    0.0000 C   0  0  0  0  0  0  0  0  0  0  0  0
    3.9167   -6.0417    0.0000 C   0  0  0  0  0  0  0  0  0  0  0  0
    1.0625   -6.0292    0.0000 C   0  0  0  0  0  0  0  0  0  0  0  0
    3.9125   -5.2167    0.0000 C   0  0  0  0  0  0  0  0  0  0  0  0
    3.2000   -4.8042    0.0000 C   0  0  0  0  0  0  0  0  0  0  0  0
    1.7750   -3.9917    0.0000 O   0  0  0  0  0  0  0  0  0  0  0  0
    5.6750   -7.7417    0.0000 O   0  0  0  0  0  0  0  0  0  0  0  0
    3.2000   -6.4542    0.0000 O   0  0  0  0  0  0  0  0  0  0  0  0
    7.0750   -7.4417    0.0000 O   0  0  0  0  0  0  0  0  0  0  0  0
    0.3500   -4.8000    0.0000 C   0  0  0  0  0  0  0  0  0  0  0  0
    6.6500   -4.3417    0.0000 C   0  0  0  0  0  0  0  0  0  0  0  0
    0.3542   -6.4542    0.0000 C   0  0  0  0  0  0  0  0  0  0  0  0
    7.2500   -8.2500    0.0000 C   0  0  0  0  0  0  0  0  0  0  0  0
   -0.3708   -5.2167    0.0000 C   0  0  0  0  0  0  0  0  0  0  0  0
    7.4750   -4.3417    0.0000 C   0  0  0  0  0  0  0  0  0  0  0  0
    8.0292   -8.5042    0.0000 C   0  0  0  0  0  0  0  0  0  0  0  0
   -0.3625   -6.0417    0.0000 C   0  0  0  0  0  0  0  0  0  0  0  0
  2  1  2  0  0  0  0
  3  4  1  0  0  0  0
  4 16  1  0  0  0  0
  5  3  1  0  0  0  0
  6  1  1  0  0  0  0
  7  9  2  0  0  0  0
  8  1  1  0  0  0  0
  9  4  1  0  0  0  0
 10  2  1  0  0  0  0
 11  2  1  0  0  0  0
 12  6  1  0  0  0  0
 13  8  1  0  0  0  0
 14  7  1  0  0  0  0
 15 13  1  0  0  0  0
 16 15  1  0  0  0  0
 17  3  2  0  0  0  0
 18 11  2  0  0  0  0
 19 13  2  0  0  0  0
 20 11  1  0  0  0  0
 21  5  2  0  0  0  0
 22 12  1  0  0  0  0
 23 14  2  0  0  0  0
 24 20  1  0  0  0  0
 25 21  1  0  0  0  0
 26 22  1  0  0  0  0
 27 24  1  0  0  0  0
 28 23  1  0  0  0  0
 12 10  2  0  0  0  0
  5 14  1  0  0  0  0
 25 28  2  0  0  0  0
M  END
>  <ID> (7646889)
7646889

>  <Supplier> (7646889)
ChemBridge

>  <clogP> (7646889)
3.614000000000000e+000

>  <RB> (7646889)
5

>  <tPSA> (7646889)
9.029000000000002e+001

>  <Hacc> (7646889)
5

>  <Hdon> (7646889)
1

>  <LogSw> (7646889)
-4.477000000000000e+000

>  <Group> (7646889)
1

>  <Core> (7646889)
098

$$$$
9158231
  -ISIS-  03310818292D

 25 27  0  0  0  0  0  0  0  0999 V2000
    7.6000    2.3208    0.0000 S   0  0  3  0  0  0  0  0  0  0  0  0
    3.7042    3.0708    0.0000 N   0  0  3  0  0  0  0  0  0  0  0  0
    4.3542    3.4458    0.0000 C   0  0  0  0  0  0  0  0  0  0  0  0
    6.9542    1.9458    0.0000 N   0  0  3  0  0  0  0  0  0  0  0  0
    3.0542    3.4458    0.0000 C   0  0  0  0  0  0  0  0  0  0  0  0
    8.1292    1.7958    0.0000 O   0  0  0  0  0  0  0  0  0  0  0  0
    8.1750    2.8083    0.0000 O   0  0  0  0  0  0  0  0  0  0  0  0
    2.4042    3.0708    0.0000 C   0  0  0  0  0  0  0  0  0  0  0  0
    5.0042    3.0708    0.0000 C   0  0  0  0  0  0  0  0  0  0  0  0
    6.3042    2.3208    0.0000 C   0  0  0  0  0  0  0  0  0  0  0  0
    3.7042    2.3208    0.0000 C   0  0  0  0  0  0  0  0  0  0  0  0
    4.3542    4.1917    0.0000 O   0  0  0  0  0  0  0  0  0  0  0  0
    2.4042    2.3208    0.0000 C   0  0  0  0  0  0  0  0  0  0  0  0
    3.0542    1.9458    0.0000 C   0  0  0  0  0  0  0  0  0  0  0  0
    5.6542    3.4458    0.0000 C   0  0  0  0  0  0  0  0  0  0  0  0
    5.0042    2.3208    0.0000 C   0  0  0  0  0  0  0  0  0  0  0  0
    5.6542    1.9458    0.0000 C   0  0  0  0  0  0  0  0  0  0  0  0
    6.3042    3.0708    0.0000 C   0  0  0  0  0  0  0  0  0  0  0  0
    7.1667    2.9333    0.0000 C   0  0  0  0  0  0  0  0  0  0  0  0
    6.9542    1.1958    0.0000 C   0  0  0  0  0  0  0  0  0  0  0  0
    1.7542    3.4458    0.0000 C   0  0  0  0  0  0  0  0  0  0  0  0
    1.7542    1.9458    0.0000 C   0  0  0  0  0  0  0  0  0  0  0  0
    6.3042    0.8208    0.0000 C   0  0  0  0  0  0  0  0  0  0  0  0
    1.1042    3.0708    0.0000 C   0  0  0  0  0  0  0  0  0  0  0  0
    1.1042    2.3208    0.0000 C   0  0  0  0  0  0  0  0  0  0  0  0
  2  3  1  0  0  0  0
  3  9  1  0  0  0  0
  4  1  1  0  0  0  0
  5  2  1  0  0  0  0
  6  1  2  0  0  0  0
  7  1  2  0  0  0  0
  8  5  1  0  0  0  0
  9 15  2  0  0  0  0
 10  4  1  0  0  0  0
 11  2  1  0  0  0  0
 12  3  2  0  0  0  0
 13 14  1  0  0  0  0
 14 11  1  0  0  0  0
 15 18  1  0  0  0  0
 16 17  2  0  0  0  0
 17 10  1  0  0  0  0
 18 10  2  0  0  0  0
 19  1  1  0  0  0  0
 20  4  1  0  0  0  0
 21  8  1  0  0  0  0
 22 13  1  0  0  0  0
 23 20  1  0  0  0  0
 24 21  2  0  0  0  0
 25 22  2  0  0  0  0
  9 16  1  0  0  0  0
  8 13  2  0  0  0  0
 25 24  1  0  0  0  0
M  END
>  <ID> (9158231)
9158231

>  <Supplier> (9158231)
ChemBridge

>  <clogP> (9158231)
2.795000000000000e+000

>  <RB> (9158231)
2

>  <tPSA> (9158231)
5.769000000000000e+001

>  <Hacc> (9158231)
3

>  <Hdon> (9158231)
0

>  <LogSw> (9158231)
-4.201000000000001e+000

>  <Group> (9158231)
2

>  <Core> (9158231)
154

$$$$
9072934
  -ISIS-  03310818292D

 21 23  0  0  0  0  0  0  0  0999 V2000
    3.8292    1.5333    0.0000 N   0  0  0  0  0  0  0  0  0  0  0  0
    4.5167    1.2250    0.0000 N   0  0  0  0  0  0  0  0  0  0  0  0
    6.8917    2.4333    0.0000 C   0  0  0  0  0  0  0  0  0  0  0  0
    5.0167    1.7833    0.0000 C   0  0  0  0  0  0  0  0  0  0  0  0
    7.2667    3.0833    0.0000 N   0  0  0  0  0  0  0  0  0  0  0  0
    3.9125    2.2750    0.0000 S   0  0  0  0  0  0  0  0  0  0  0  0
    4.6417    2.4333    0.0000 C   0  0  0  0  0  0  0  0  0  0  0  0
    6.1417    2.4333    0.0000 C   0  0  0  0  0  0  0  0  0  0  0  0
    5.7667    1.7833    0.0000 C   0  0  0  0  0  0  0  0  0  0  0  0
    8.0167    3.0833    0.0000 C   0  0  0  0  0  0  0  0  0  0  0  0
    7.2667    1.7833    0.0000 O   0  0  0  0  0  0  0  0  0  0  0  0
    5.0167    3.0833    0.0000 C   0  0  0  0  0  0  0  0  0  0  0  0
    5.7667    3.0833    0.0000 C   0  0  0  0  0  0  0  0  0  0  0  0
    8.3917    2.4333    0.0000 C   0  0  0  0  0  0  0  0  0  0  0  0
    8.0167    1.7833    0.0000 O   0  0  0  0  0  0  0  0  0  0  0  0
    8.3917    3.7333    0.0000 C   0  0  0  0  0  0  0  0  0  0  0  0
    9.1417    2.4333    0.0000 C   0  0  0  0  0  0  0  0  0  0  0  0
    8.3917    1.1333    0.0000 C   0  0  0  0  0  0  0  0  0  0  0  0
    8.0167    0.4833    0.0000 C   0  0  0  0  0  0  0  0  0  0  0  0
    9.1417    3.7333    0.0000 C   0  0  0  0  0  0  0  0  0  0  0  0
    9.5167    3.0833    0.0000 C   0  0  0  0  0  0  0  0  0  0  0  0
  2  1  2  0  0  0  0
  3  8  1  0  0  0  0
  4  2  1  0  0  0  0
  5  3  1  0  0  0  0
  6  1  1  0  0  0  0
  7  6  1  0  0  0  0
  8  9  2  0  0  0  0
  9  4  1  0  0  0  0
 10  5  1  0  0  0  0
 11  3  2  0  0  0  0
 12  7  1  0  0  0  0
 13 12  2  0  0  0  0
 14 10  1  0  0  0  0
 15 14  1  0  0  0  0
 16 10  2  0  0  0  0
 17 14  2  0  0  0  0
 18 15  1  0  0  0  0
 19 18  1  0  0  0  0
 20 16  1  0  0  0  0
 21 20  2  0  0  0  0
  7  4  2  0  0  0  0
 13  8  1  0  0  0  0
 17 21  1  0  0  0  0
M  END
>  <ID> (9072934)
9072934

>  <Supplier> (9072934)
ChemBridge

>  <clogP> (9072934)
2.379000000000000e+000

>  <RB> (9072934)
2

>  <tPSA> (9072934)
6.411000000000000e+001

>  <Hacc> (9072934)
4

>  <Hdon> (9072934)
1

>  <LogSw> (9072934)
-3.415000000000000e+000

>  <Group> (9072934)
2

$$$$
7646883
  -ISIS-  03310818262D

 23 24  0  0  0  0  0  0  0  0999 V2000
   -1.7708    1.3000    0.0000 C   0  0  0  0  0  0  0  0  0  0  0  0
   -2.4833    0.8875    0.0000 C   0  0  3  0  0  0  0  0  0  0  0  0
   -2.4833    0.0583    0.0000 C   0  0  0  0  0  0  0  0  0  0  0  0
   -1.0500    0.8875    0.0000 N   0  0  0  0  0  0  0  0  0  0  0  0
   -1.7833    2.1250    0.0000 O   0  0  0  0  0  0  0  0  0  0  0  0
   -1.7708   -0.3542    0.0000 O   0  0  0  0  0  0  0  0  0  0  0  0
   -3.2000    1.3000    0.0000 C   0  0  3  0  0  0  0  0  0  0  0  0
   -0.3333    1.3083    0.0000 C   0  0  0  0  0  0  0  0  0  0  0  0
   -3.1958   -0.3542    0.0000 O   0  0  0  0  0  0  0  0  0  0  0  0
    1.1000    2.1333    0.0000 C   0  0  0  0  0  0  0  0  0  0  0  0
    0.3875    0.8958    0.0000 C   0  0  0  0  0  0  0  0  0  0  0  0
   -0.3333    2.1333    0.0000 C   0  0  0  0  0  0  0  0  0  0  0  0
    1.1000    1.3083    0.0000 C   0  0  0  0  0  0  0  0  0  0  0  0
    0.3875    2.5458    0.0000 C   0  0  0  0  0  0  0  0  0  0  0  0
    1.8167    2.5500    0.0000 O   0  0  0  0  0  0  0  0  0  0  0  0
   -3.0833    2.1208    0.0000 C   0  0  0  0  0  0  0  0  0  0  0  0
   -3.9208    0.8875    0.0000 C   0  0  0  0  0  0  0  0  0  0  0  0
   -3.9125    0.0583    0.0000 C   0  0  0  0  0  0  0  0  0  0  0  0
    1.8167    3.3833    0.0000 C   0  0  0  0  0  0  0  0  0  0  0  0
   -3.6458    2.7208    0.0000 C   0  0  0  0  0  0  0  0  0  0  0  0
   -4.6875    1.1958    0.0000 C   0  0  0  0  0  0  0  0  0  0  0  0
   -4.9333    1.9833    0.0000 C   0  0  0  0  0  0  0  0  0  0  0  0
   -4.4583    2.6583    0.0000 C   0  0  0  0  0  0  0  0  0  0  0  0
  2  1  1  0  0  0  0
  3  2  1  0  0  0  0
  4  1  1  0  0  0  0
  5  1  2  0  0  0  0
  6  3  2  0  0  0  0
  7  2  1  0  0  0  0
  8  4  1  0  0  0  0
  9  3  1  0  0  0  0
 10 14  2  0  0  0  0
 11  8  1  0  0  0  0
 12  8  2  0  0  0  0
 13 11  2  0  0  0  0
 14 12  1  0  0  0  0
 15 10  1  0  0  0  0
 16  7  1  0  0  0  0
 17  7  1  0  0  0  0
 18  9  1  0  0  0  0
 19 15  1  0  0  0  0
 20 16  1  0  0  0  0
 21 17  1  0  0  0  0
 22 21  1  0  0  0  0
 23 20  1  0  0  0  0
 13 10  1  0  0  0  0
 23 22  1  0  0  0  0
M  END
>  <ID> (7646883)
7646883

>  <Supplier> (7646883)
ChemBridge

>  <clogP> (7646883)
4.351999999999999e+000

>  <RB> (7646883)
4

>  <tPSA> (7646883)
6.463000000000000e+001

>  <Hacc> (7646883)
4

>  <Hdon> (7646883)
1

>  <LogSw> (7646883)
-4.859000000000000e+000

>  <Group> (7646883)
3

$$$$
7932741
  -ISIS-  03310818272D

 29 34  0  0  0  0  0  0  0  0999 V2000
    3.4917    1.5458    0.0000 C   0  0  0  0  0  0  0  0  0  0  0  0
    3.4917    2.2958    0.0000 C   0  0  0  0  0  0  0  0  0  0  0  0
    4.6417    1.9208    0.0000 C   0  0  0  0  0  0  0  0  0  0  0  0
    2.8417    2.6708    0.0000 N   0  0  0  0  0  0  0  0  0  0  0  0
    4.2042    2.5250    0.0000 S   0  0  0  0  0  0  0  0  0  0  0  0
    4.2042    1.3125    0.0000 C   0  0  0  0  0  0  0  0  0  0  0  0
    2.1917    2.2958    0.0000 C   0  0  0  0  0  0  0  0  0  0  0  0
    2.8417    1.1708    0.0000 C   0  0  0  0  0  0  0  0  0  0  0  0
    2.1917    1.5458    0.0000 C   0  0  0  0  0  0  0  0  0  0  0  0
    5.3917    1.8375    0.0000 C   0  0  0  0  0  0  0  0  0  0  0  0
    1.5417    2.6708    0.0000 N   0  0  3  0  0  0  0  0  0  0  0  0
    5.6917    1.1583    0.0000 N   0  0  0  0  0  0  0  0  0  0  0  0
    4.5125    0.6250    0.0000 N   0  0  0  0  0  0  0  0  0  0  0  0
    5.8292    2.4458    0.0000 N   0  0  0  0  0  0  0  0  0  0  0  0
    7.0167    2.9833    0.0000 C   0  0  0  0  0  0  0  0  0  0  0  0
    5.2542    0.5458    0.0000 C   0  0  0  0  0  0  0  0  0  0  0  0
    7.7667    2.9833    0.0000 O   0  0  0  0  0  0  0  0  0  0  0  0
    6.7875    3.6875    0.0000 C   0  0  0  0  0  0  0  0  0  0  0  0
    8.0000    3.6875    0.0000 C   0  0  0  0  0  0  0  0  0  0  0  0
    7.3917    4.1250    0.0000 C   0  0  0  0  0  0  0  0  0  0  0  0
    0.2417    3.4208    0.0000 O   0  0  0  0  0  0  0  0  0  0  0  0
    6.5792    2.3708    0.0000 C   0  0  0  0  0  0  0  0  0  0  0  0
    2.6875    0.4333    0.0000 C   0  0  0  0  0  0  0  0  0  0  0  0
    1.6375    1.0458    0.0000 C   0  0  0  0  0  0  0  0  0  0  0  0
    0.8917    2.2958    0.0000 C   0  0  0  0  0  0  0  0  0  0  0  0
    1.5417    3.4208    0.0000 C   0  0  0  0  0  0  0  0  0  0  0  0
    1.9417    0.3583    0.0000 C   0  0  0  0  0  0  0  0  0  0  0  0
    0.2417    2.6708    0.0000 C   0  0  0  0  0  0  0  0  0  0  0  0
    0.8917    3.7958    0.0000 C   0  0  0  0  0  0  0  0  0  0  0  0
  2  1  2  0  0  0  0
  3  6  2  0  0  0  0
  4  2  1  0  0  0  0
  5  2  1  0  0  0  0
  6  1  1  0  0  0  0
  7  9  1  0  0  0  0
  8  1  1  0  0  0  0
  9  8  2  0  0  0  0
 10  3  1  0  0  0  0
 11  7  1  0  0  0  0
 12 16  1  0  0  0  0
 13  6  1  0  0  0  0
 14 10  1  0  0  0  0
 15 22  1  0  0  0  0
 16 13  2  0  0  0  0
 17 15  1  0  0  0  0
 18 15  2  0  0  0  0
 19 17  1  0  0  0  0
 20 18  1  0  0  0  0
 21 29  1  0  0  0  0
 22 14  1  0  0  0  0
 23  8  1  0  0  0  0
 24  9  1  0  0  0  0
 25 11  1  0  0  0  0
 26 11  1  0  0  0  0
 27 23  1  0  0  0  0
 28 25  1  0  0  0  0
 29 26  1  0  0  0  0
  3  5  1  0  0  0  0
 24 27  1  0  0  0  0
  4  7  2  0  0  0  0
 12 10  2  0  0  0  0
 21 28  1  0  0  0  0
 19 20  2  0  0  0  0
M  END
>  <ID> (7932741)
7932741

>  <Supplier> (7932741)
ChemBridge

>  <clogP> (7932741)
4.042000000000000e+000

>  <RB> (7932741)
4

>  <tPSA> (7932741)
7.631000000000000e+001

>  <Hacc> (7932741)
5

>  <Hdon> (7932741)
1

>  <LogSw> (7932741)
-6.732000000000000e+000

>  <Group> (7932741)
3

$$$$
7932743
  -ISIS-  03310818272D

 29 31  0  0  0  0  0  0  0  0999 V2000
    0.3042    2.4083    0.0000 S   0  0  3  0  0  0  0  0  0  0  0  0
   -0.4208    2.6000    0.0000 N   0  0  3  0  0  0  0  0  0  0  0  0
   -0.6083    3.3333    0.0000 C   0  0  0  0  0  0  0  0  0  0  0  0
   -1.3333    3.5208    0.0000 C   0  0  0  0  0  0  0  0  0  0  0  0
    0.6792    3.0583    0.0000 C   0  0  0  0  0  0  0  0  0  0  0  0
    0.0542    1.7083    0.0000 O   0  0  0  0  0  0  0  0  0  0  0  0
    0.9875    2.0958    0.0000 O   0  0  0  0  0  0  0  0  0  0  0  0
   -3.1708    5.3542    0.0000 C   0  0  0  0  0  0  0  0  0  0  0  0
   -2.4458    5.1542    0.0000 C   0  0  0  0  0  0  0  0  0  0  0  0
   -1.5333    4.2417    0.0000 N   0  0  0  0  0  0  0  0  0  0  0  0
   -2.2500    4.4292    0.0000 C   0  0  0  0  0  0  0  0  0  0  0  0
   -0.9458    2.0708    0.0000 C   0  0  0  0  0  0  0  0  0  0  0  0
   -3.7000    4.8167    0.0000 C   0  0  0  0  0  0  0  0  0  0  0  0
   -1.8625    2.9958    0.0000 O   0  0  0  0  0  0  0  0  0  0  0  0
    1.4292    3.0583    0.0000 C   0  0  0  0  0  0  0  0  0  0  0  0
    0.3042    3.7083    0.0000 C   0  0  0  0  0  0  0  0  0  0  0  0
   -3.5083    4.0917    0.0000 C   0  0  0  0  0  0  0  0  0  0  0  0
   -3.3625    6.0792    0.0000 Cl  0  0  0  0  0  0  0  0  0  0  0  0
   -2.7833    3.9083    0.0000 C   0  0  0  0  0  0  0  0  0  0  0  0
    1.4292    4.3417    0.0000 C   0  0  0  0  0  0  0  0  0  0  0  0
    1.8042    3.7083    0.0000 C   0  0  0  0  0  0  0  0  0  0  0  0
    0.6792    4.3417    0.0000 C   0  0  0  0  0  0  0  0  0  0  0  0
    1.8042    5.0000    0.0000 F   0  0  0  0  0  0  0  0  0  0  0  0
   -4.4250    5.0167    0.0000 C   0  0  0  0  0  0  0  0  0  0  0  0
   -1.6708    2.2708    0.0000 C   0  0  0  0  0  0  0  0  0  0  0  0
   -0.7500    1.3458    0.0000 C   0  0  0  0  0  0  0  0  0  0  0  0
   -2.2000    1.7333    0.0000 C   0  0  0  0  0  0  0  0  0  0  0  0
   -1.2833    0.8208    0.0000 C   0  0  0  0  0  0  0  0  0  0  0  0
   -2.0083    1.0125    0.0000 C   0  0  0  0  0  0  0  0  0  0  0  0
  2  1  1  0  0  0  0
  3  2  1  0  0  0  0
  4  3  1  0  0  0  0
  5  1  1  0  0  0  0
  6  1  2  0  0  0  0
  7  1  2  0  0  0  0
  8  9  2  0  0  0  0
  9 11  1  0  0  0  0
 10  4  1  0  0  0  0
 11 10  1  0  0  0  0
 12  2  1  0  0  0  0
 13 17  2  0  0  0  0
 14  4  2  0  0  0  0
 15  5  1  0  0  0  0
 16  5  2  0  0  0  0
 17 19  1  0  0  0  0
 18  8  1  0  0  0  0
 19 11  2  0  0  0  0
 20 22  2  0  0  0  0
 21 15  2  0  0  0  0
 22 16  1  0  0  0  0
 23 20  1  0  0  0  0
 24 13  1  0  0  0  0
 25 12  1  0  0  0  0
 26 12  2  0  0  0  0
 27 25  2  0  0  0  0
 28 26  1  0  0  0  0
 29 28  2  0  0  0  0
 21 20  1  0  0  0  0
 27 29  1  0  0  0  0
 13  8  1  0  0  0  0
M  END
>  <ID> (7932743)
7932743

>  <Supplier> (7932743)
ChemBridge

>  <clogP> (7932743)
5.363999999999996e+000

>  <RB> (7932743)
5

>  <tPSA> (7932743)
6.647999999999998e+001

>  <Hacc> (7932743)
3

>  <Hdon> (7932743)
1

>  <LogSw> (7932743)
-6.936000000000002e+000

>  <Group> (7932743)
1

>  <Core> (7932743)
084

$$$$
7932742
  -ISIS-  03310818272D

 33 36  0  0  0  0  0  0  0  0999 V2000
    8.3500    2.4583    0.0000 N   0  0  3  0  0  0  0  0  0  0  0  0
    7.9042    3.0625    0.0000 N   0  0  0  0  0  0  0  0  0  0  0  0
    7.9042    1.8500    0.0000 N   0  0  0  0  0  0  0  0  0  0  0  0
    7.1917    2.8333    0.0000 C   0  0  0  0  0  0  0  0  0  0  0  0
    7.1917    2.0833    0.0000 C   0  0  0  0  0  0  0  0  0  0  0  0
    5.8917    2.8333    0.0000 C   0  0  0  0  0  0  0  0  0  0  0  0
    5.2417    5.4542    0.0000 N   0  3  0  0  0  0  0  0  0  0  0  0
    6.5417    3.2083    0.0000 C   0  0  0  0  0  0  0  0  0  0  0  0
    4.5917    4.3292    0.0000 C   0  0  0  0  0  0  0  0  0  0  0  0
    5.2417    3.9583    0.0000 C   0  0  0  0  0  0  0  0  0  0  0  0
    6.5417    1.7083    0.0000 C   0  0  0  0  0  0  0  0  0  0  0  0
    4.5917    5.0792    0.0000 C   0  0  0  0  0  0  0  0  0  0  0  0
    5.2417    3.2083    0.0000 N   0  0  0  0  0  0  0  0  0  0  0  0
    5.8917    2.0833    0.0000 C   0  0  0  0  0  0  0  0  0  0  0  0
    9.1000    2.4583    0.0000 C   0  0  0  0  0  0  0  0  0  0  0  0
    5.2417    6.2042    0.0000 O   0  5  0  0  0  0  0  0  0  0  0  0
    5.8917    5.0792    0.0000 O   0  0  0  0  0  0  0  0  0  0  0  0
    5.8917    4.3292    0.0000 O   0  0  0  0  0  0  0  0  0  0  0  0
   10.6000    2.4583    0.0000 C   0  0  0  0  0  0  0  0  0  0  0  0
   11.3500    2.4583    0.0000 N   0  0  3  0  0  0  0  0  0  0  0  0
    9.4750    3.1083    0.0000 C   0  0  0  0  0  0  0  0  0  0  0  0
    9.4750    1.8083    0.0000 C   0  0  0  0  0  0  0  0  0  0  0  0
   10.2250    1.8083    0.0000 C   0  0  0  0  0  0  0  0  0  0  0  0
   10.2250    3.1083    0.0000 C   0  0  0  0  0  0  0  0  0  0  0  0
    3.9417    3.9583    0.0000 C   0  0  0  0  0  0  0  0  0  0  0  0
    5.2417    1.7083    0.0000 C   0  0  0  0  0  0  0  0  0  0  0  0
    3.9417    5.4542    0.0000 C   0  0  0  0  0  0  0  0  0  0  0  0
   11.7250    3.1083    0.0000 C   0  0  0  0  0  0  0  0  0  0  0  0
   11.7250    1.8083    0.0000 C   0  0  0  0  0  0  0  0  0  0  0  0
    3.2917    4.3292    0.0000 C   0  0  0  0  0  0  0  0  0  0  0  0
   12.4750    1.8083    0.0000 C   0  0  0  0  0  0  0  0  0  0  0  0
   12.4750    3.1083    0.0000 C   0  0  0  0  0  0  0  0  0  0  0  0
    3.2917    5.0792    0.0000 C   0  0  0  0  0  0  0  0  0  0  0  0
  2  1  1  0  0  0  0
  3  1  1  0  0  0  0
  4  2  2  0  0  0  0
  5  3  2  0  0  0  0
  6  8  2  0  0  0  0
  7 12  1  0  0  0  0
  8  4  1  0  0  0  0
  9 10  1  0  0  0  0
 10 13  1  0  0  0  0
 11  5  1  0  0  0  0
 12  9  1  0  0  0  0
 13  6  1  0  0  0  0
 14 11  2  0  0  0  0
 15  1  1  0  0  0  0
 16  7  1  0  0  0  0
 17  7  2  0  0  0  0
 18 10  2  0  0  0  0
 19 23  1  0  0  0  0
 20 19  1  0  0  0  0
 21 15  2  0  0  0  0
 22 15  1  0  0  0  0
 23 22  2  0  0  0  0
 24 21  1  0  0  0  0
 25  9  2  0  0  0  0
 26 14  1  0  0  0  0
 27 12  2  0  0  0  0
 28 20  1  0  0  0  0
 29 20  1  0  0  0  0
 30 25  1  0  0  0  0
 31 29  1  0  0  0  0
 32 28  1  0  0  0  0
 33 30  2  0  0  0  0
  5  4  1  0  0  0  0
 19 24  2  0  0  0  0
 14  6  1  0  0  0  0
 27 33  1  0  0  0  0
M  CHG  2   7   1  16  -1
M  END
>  <ID> (7932742)
7932742

>  <Supplier> (7932742)
ChemBridge

>  <clogP> (7932742)
4.816999999999998e+000

>  <RB> (7932742)
3

>  <tPSA> (7932742)
1.061900000000000e+002

>  <Hacc> (7932742)
5

>  <Hdon> (7932742)
1

>  <LogSw> (7932742)
-6.944000000000000e+000

>  <Group> (7932742)
1

>  <Core> (7932742)
218

$$$$
7932745
  -ISIS-  03310818272D

 25 27  0  0  0  0  0  0  0  0999 V2000
   -2.4833    1.7833    0.0000 N   0  3  0  0  0  0  0  0  0  0  0  0
   -0.0375    2.6708    0.0000 C   0  0  0  0  0  0  0  0  0  0  0  0
    2.1917    2.5458    0.0000 N   0  0  3  0  0  0  0  0  0  0  0  0
    0.7000    2.5458    0.0000 N   0  0  0  0  0  0  0  0  0  0  0  0
    1.0750    3.1958    0.0000 C   0  0  0  0  0  0  0  0  0  0  0  0
    1.8250    3.1958    0.0000 C   0  0  0  0  0  0  0  0  0  0  0  0
   -1.7458    1.6500    0.0000 C   0  0  0  0  0  0  0  0  0  0  0  0
   -0.5208    2.0958    0.0000 C   0  0  0  0  0  0  0  0  0  0  0  0
    2.9500    1.2458    0.0000 N   0  0  3  0  0  0  0  0  0  0  0  0
   -1.2583    2.2250    0.0000 C   0  0  0  0  0  0  0  0  0  0  0  0
   -2.9625    1.2083    0.0000 O   0  5  0  0  0  0  0  0  0  0  0  0
   -2.7333    2.4875    0.0000 O   0  0  0  0  0  0  0  0  0  0  0  0
   -0.2958    3.3750    0.0000 O   0  0  0  0  0  0  0  0  0  0  0  0
    2.9500    2.5458    0.0000 C   0  0  0  0  0  0  0  0  0  0  0  0
    1.8250    1.8958    0.0000 C   0  0  0  0  0  0  0  0  0  0  0  0
    2.1917    1.2458    0.0000 C   0  0  0  0  0  0  0  0  0  0  0  0
    3.3250    1.8958    0.0000 C   0  0  0  0  0  0  0  0  0  0  0  0
   -1.4833    0.9458    0.0000 C   0  0  0  0  0  0  0  0  0  0  0  0
    3.3250    0.5958    0.0000 C   0  0  0  0  0  0  0  0  0  0  0  0
    0.7000    3.8375    0.0000 C   0  0  0  0  0  0  0  0  0  0  0  0
   -0.2625    1.3958    0.0000 C   0  0  0  0  0  0  0  0  0  0  0  0
    2.1917    3.8375    0.0000 C   0  0  0  0  0  0  0  0  0  0  0  0
   -0.7458    0.8208    0.0000 C   0  0  0  0  0  0  0  0  0  0  0  0
    1.0750    4.4792    0.0000 C   0  0  0  0  0  0  0  0  0  0  0  0
    1.8250    4.4792    0.0000 C   0  0  0  0  0  0  0  0  0  0  0  0
  2  8  1  0  0  0  0
  3  6  1  0  0  0  0
  4  2  1  0  0  0  0
  5  4  1  0  0  0  0
  6  5  2  0  0  0  0
  7  1  1  0  0  0  0
  8 10  1  0  0  0  0
  9 16  1  0  0  0  0
 10  7  2  0  0  0  0
 11  1  1  0  0  0  0
 12  1  2  0  0  0  0
 13  2  2  0  0  0  0
 14  3  1  0  0  0  0
 15  3  1  0  0  0  0
 16 15  1  0  0  0  0
 17 14  1  0  0  0  0
 18  7  1  0  0  0  0
 19  9  1  0  0  0  0
 20  5  1  0  0  0  0
 21 23  1  0  0  0  0
 22  6  1  0  0  0  0
 23 18  2  0  0  0  0
 24 20  2  0  0  0  0
 25 24  1  0  0  0  0
 21  8  2  0  0  0  0
 22 25  2  0  0  0  0
  9 17  1  0  0  0  0
M  CHG  2   1   1  11  -1
M  END
>  <ID> (7932745)
7932745

>  <Supplier> (7932745)
ChemBridge

>  <clogP> (7932745)
2.210000000000000e+000

>  <RB> (7932745)
3

>  <tPSA> (7932745)
7.872000000000000e+001

>  <Hacc> (7932745)
4

>  <Hdon> (7932745)
1

>  <LogSw> (7932745)
-3.959000000000000e+000

>  <Group> (7932745)
2

>  <Core> (7932745)
162

$$$$
6952466
  -ISIS-  03310818242D

 28 30  0  0  0  0  0  0  0  0999 V2000
    6.1000   -4.1292    0.0000 S   0  0  3  0  0  0  0  0  0  0  0  0
    6.0917   -4.9667    0.0000 N   0  0  3  0  0  0  0  0  0  0  0  0
    6.8042   -5.3792    0.0000 C   0  0  0  0  0  0  0  0  0  0  0  0
    7.5292   -4.9667    0.0000 C   0  0  0  0  0  0  0  0  0  0  0  0
    6.0917   -3.3042    0.0000 C   0  0  0  0  0  0  0  0  0  0  0  0
    6.9292   -4.1292    0.0000 O   0  0  0  0  0  0  0  0  0  0  0  0
    5.2667   -4.1292    0.0000 O   0  0  0  0  0  0  0  0  0  0  0  0
    5.3792   -5.3750    0.0000 C   0  0  0  0  0  0  0  0  0  0  0  0
    8.2417   -5.3875    0.0000 N   0  0  0  0  0  0  0  0  0  0  0  0
    7.5292   -4.1417    0.0000 O   0  0  0  0  0  0  0  0  0  0  0  0
    5.3792   -2.8917    0.0000 C   0  0  0  0  0  0  0  0  0  0  0  0
    6.8125   -2.8875    0.0000 C   0  0  0  0  0  0  0  0  0  0  0  0
    4.6625   -4.9542    0.0000 C   0  0  0  0  0  0  0  0  0  0  0  0
    6.0875   -1.6500    0.0000 C   0  0  0  0  0  0  0  0  0  0  0  0
    3.2292   -4.1167    0.0000 C   0  0  0  0  0  0  0  0  0  0  0  0
    5.3667   -2.0667    0.0000 C   0  0  0  0  0  0  0  0  0  0  0  0
    6.8042   -2.0542    0.0000 C   0  0  0  0  0  0  0  0  0  0  0  0
    2.5167   -3.7042    0.0000 Cl  0  0  0  0  0  0  0  0  0  0  0  0
    6.0792   -0.8250    0.0000 Cl  0  0  0  0  0  0  0  0  0  0  0  0
    8.9625   -4.9792    0.0000 C   0  0  3  0  0  0  0  0  0  0  0  0
    4.6667   -4.1292    0.0000 C   0  0  0  0  0  0  0  0  0  0  0  0
    3.9417   -5.3667    0.0000 C   0  0  0  0  0  0  0  0  0  0  0  0
    3.2292   -4.9542    0.0000 C   0  0  0  0  0  0  0  0  0  0  0  0
    3.9542   -3.7042    0.0000 C   0  0  0  0  0  0  0  0  0  0  0  0
    9.7167   -5.3042    0.0000 C   0  0  0  0  0  0  0  0  0  0  0  0
    9.0500   -4.1417    0.0000 C   0  0  0  0  0  0  0  0  0  0  0  0
    9.8542   -3.9750    0.0000 C   0  0  0  0  0  0  0  0  0  0  0  0
   10.2667   -4.6917    0.0000 C   0  0  0  0  0  0  0  0  0  0  0  0
  2  1  1  0  0  0  0
  3  2  1  0  0  0  0
  4  3  1  0  0  0  0
  5  1  1  0  0  0  0
  6  1  2  0  0  0  0
  7  1  2  0  0  0  0
  8  2  1  0  0  0  0
  9  4  1  0  0  0  0
 10  4  2  0  0  0  0
 11  5  1  0  0  0  0
 12  5  2  0  0  0  0
 13  8  1  0  0  0  0
 14 17  2  0  0  0  0
 15 23  1  0  0  0  0
 16 11  2  0  0  0  0
 17 12  1  0  0  0  0
 18 15  1  0  0  0  0
 19 14  1  0  0  0  0
 20  9  1  0  0  0  0
 21 13  2  0  0  0  0
 22 13  1  0  0  0  0
 23 22  2  0  0  0  0
 24 21  1  0  0  0  0
 25 20  1  0  0  0  0
 26 20  1  0  0  0  0
 27 26  1  0  0  0  0
 28 25  1  0  0  0  0
 16 14  1  0  0  0  0
 24 15  2  0  0  0  0
 27 28  1  0  0  0  0
M  END
>  <ID> (6952466)
6952466

>  <Supplier> (6952466)
ChemBridge

>  <clogP> (6952466)
5.170000000000000e+000

>  <RB> (6952466)
6

>  <tPSA> (6952466)
6.647999999999998e+001

>  <Hacc> (6952466)
4

>  <Hdon> (6952466)
1

>  <LogSw> (6952466)
-6.832000000000000e+000

>  <Group> (6952466)
1

>  <Core> (6952466)
084

$$$$
6952465
  -ISIS-  03310818242D

 23 25  0  0  0  0  0  0  0  0999 V2000
    0.7417   -1.2417    0.0000 N   0  0  3  0  0  0  0  0  0  0  0  0
    0.4875   -2.0292    0.0000 C   0  0  0  0  0  0  0  0  0  0  0  0
    1.5667   -1.2417    0.0000 C   0  0  0  0  0  0  0  0  0  0  0  0
    1.8167   -2.0292    0.0000 C   0  0  0  0  0  0  0  0  0  0  0  0
    1.1542   -2.5125    0.0000 S   0  0  0  0  0  0  0  0  0  0  0  0
    0.2542   -0.5750    0.0000 C   0  0  0  0  0  0  0  0  0  0  0  0
    2.5375   -2.4417    0.0000 C   0  0  0  0  0  0  0  0  0  0  0  0
   -0.2333   -2.4375    0.0000 S   0  0  0  0  0  0  0  0  0  0  0  0
   -0.5708   -0.6667    0.0000 C   0  0  0  0  0  0  0  0  0  0  0  0
    4.6000   -1.7292    0.0000 C   0  0  0  0  0  0  0  0  0  0  0  0
    1.9792   -0.5250    0.0000 O   0  0  0  0  0  0  0  0  0  0  0  0
    3.3625   -2.4417    0.0000 C   0  0  0  0  0  0  0  0  0  0  0  0
    5.0042   -2.4417    0.0000 C   0  0  0  0  0  0  0  0  0  0  0  0
    3.7667   -1.7250    0.0000 C   0  0  0  0  0  0  0  0  0  0  0  0
    4.5917   -3.1542    0.0000 C   0  0  0  0  0  0  0  0  0  0  0  0
   -1.0500    0.0000    0.0000 C   0  0  0  0  0  0  0  0  0  0  0  0
    5.0167   -1.0167    0.0000 Br  0  0  0  0  0  0  0  0  0  0  0  0
    3.7667   -3.1542    0.0000 C   0  0  0  0  0  0  0  0  0  0  0  0
    5.8375   -2.4500    0.0000 F   0  0  0  0  0  0  0  0  0  0  0  0
    0.5917    0.1708    0.0000 C   0  0  0  0  0  0  0  0  0  0  0  0
   -1.8708   -0.0792    0.0000 Cl  0  0  0  0  0  0  0  0  0  0  0  0
    0.1042    0.8375    0.0000 C   0  0  0  0  0  0  0  0  0  0  0  0
   -0.7125    0.7583    0.0000 C   0  0  0  0  0  0  0  0  0  0  0  0
  2  1  1  0  0  0  0
  3  1  1  0  0  0  0
  4  3  1  0  0  0  0
  5  2  1  0  0  0  0
  6  1  1  0  0  0  0
  7  4  2  0  0  0  0
  8  2  2  0  0  0  0
  9  6  1  0  0  0  0
 10 14  2  0  0  0  0
 11  3  2  0  0  0  0
 12  7  1  0  0  0  0
 13 15  2  0  0  0  0
 14 12  1  0  0  0  0
 15 18  1  0  0  0  0
 16  9  2  0  0  0  0
 17 10  1  0  0  0  0
 18 12  2  0  0  0  0
 19 13  1  0  0  0  0
 20  6  2  0  0  0  0
 21 16  1  0  0  0  0
 22 20  1  0  0  0  0
 23 22  2  0  0  0  0
  4  5  1  0  0  0  0
 16 23  1  0  0  0  0
 13 10  1  0  0  0  0
M  END
>  <ID> (6952465)
6952465

>  <Supplier> (6952465)
ChemBridge

>  <clogP> (6952465)
5.760000000000000e+000

>  <RB> (6952465)
2

>  <tPSA> (6952465)
2.031000000000000e+001

>  <Hacc> (6952465)
1

>  <Hdon> (6952465)
0

>  <LogSw> (6952465)
-7.244000000000000e+000

>  <Group> (6952465)
1

>  <Core> (6952465)
001

$$$$
7932748
  -ISIS-  03310818272D

 30 33  0  0  0  0  0  0  0  0999 V2000
    8.0875    0.8458    0.0000 C   0  0  0  0  0  0  0  0  0  0  0  0
    8.0875    1.5958    0.0000 C   0  0  0  0  0  0  0  0  0  0  0  0
    7.4375    1.9708    0.0000 C   0  0  0  0  0  0  0  0  0  0  0  0
    7.4375    0.4708    0.0000 O   0  0  0  0  0  0  0  0  0  0  0  0
    6.7875    0.8458    0.0000 C   0  0  0  0  0  0  0  0  0  0  0  0
    6.7875    1.5958    0.0000 C   0  0  0  0  0  0  0  0  0  0  0  0
    6.1417    0.4708    0.0000 C   0  0  0  0  0  0  0  0  0  0  0  0
    8.7375    1.9708    0.0000 C   0  0  0  0  0  0  0  0  0  0  0  0
    3.5417    0.4708    0.0000 C   0  0  0  0  0  0  0  0  0  0  0  0
    8.7375    0.4708    0.0000 O   0  0  0  0  0  0  0  0  0  0  0  0
    3.5417   -0.2792    0.0000 O   0  0  0  0  0  0  0  0  0  0  0  0
    6.1417    1.9708    0.0000 C   0  0  0  0  0  0  0  0  0  0  0  0
    2.8917    0.8458    0.0000 O   0  0  0  0  0  0  0  0  0  0  0  0
    5.4917    0.8458    0.0000 C   0  0  0  0  0  0  0  0  0  0  0  0
    9.3875    1.5958    0.0000 C   0  0  0  0  0  0  0  0  0  0  0  0
    8.7375    2.7208    0.0000 C   0  0  0  0  0  0  0  0  0  0  0  0
    4.8417    0.4708    0.0000 O   0  0  0  0  0  0  0  0  0  0  0  0
    4.1917    0.8458    0.0000 C   0  0  0  0  0  0  0  0  0  0  0  0
   10.0375    2.7208    0.0000 C   0  0  0  0  0  0  0  0  0  0  0  0
    5.4917    1.5958    0.0000 C   0  0  0  0  0  0  0  0  0  0  0  0
    2.2417    0.4708    0.0000 C   0  0  0  0  0  0  0  0  0  0  0  0
   10.0375    1.9708    0.0000 C   0  0  0  0  0  0  0  0  0  0  0  0
    9.3875    3.0958    0.0000 C   0  0  0  0  0  0  0  0  0  0  0  0
   10.6875    3.0958    0.0000 F   0  0  0  0  0  0  0  0  0  0  0  0
    1.5917    0.8458    0.0000 C   0  0  0  0  0  0  0  0  0  0  0  0
    1.5917    1.5958    0.0000 C   0  0  0  0  0  0  0  0  0  0  0  0
    0.9417    0.4708    0.0000 C   0  0  0  0  0  0  0  0  0  0  0  0
    0.2917    0.8458    0.0000 C   0  0  0  0  0  0  0  0  0  0  0  0
    0.9417    1.9708    0.0000 C   0  0  0  0  0  0  0  0  0  0  0  0
    0.2917    1.5958    0.0000 C   0  0  0  0  0  0  0  0  0  0  0  0
  2  1  1  0  0  0  0
  3  2  2  0  0  0  0
  4  1  1  0  0  0  0
  5  4  1  0  0  0  0
  6  5  1  0  0  0  0
  7  5  2  0  0  0  0
  8  2  1  0  0  0  0
  9 18  1  0  0  0  0
 10  1  2  0  0  0  0
 11  9  2  0  0  0  0
 12  6  2  0  0  0  0
 13  9  1  0  0  0  0
 14  7  1  0  0  0  0
 15  8  1  0  0  0  0
 16  8  2  0  0  0  0
 17 14  1  0  0  0  0
 18 17  1  0  0  0  0
 19 23  2  0  0  0  0
 20 14  2  0  0  0  0
 21 13  1  0  0  0  0
 22 15  2  0  0  0  0
 23 16  1  0  0  0  0
 24 19  1  0  0  0  0
 25 21  1  0  0  0  0
 26 25  2  0  0  0  0
 27 25  1  0  0  0  0
 28 27  2  0  0  0  0
 29 26  1  0  0  0  0
 30 28  1  0  0  0  0
  6  3  1  0  0  0  0
 22 19  1  0  0  0  0
 12 20  1  0  0  0  0
 29 30  2  0  0  0  0
M  END
>  <ID> (7932748)
7932748

>  <Supplier> (7932748)
ChemBridge

>  <clogP> (7932748)
5.323000000000000e+000

>  <RB> (7932748)
7

>  <tPSA> (7932748)
6.574000000000000e+001

>  <Hacc> (7932748)
5

>  <Hdon> (7932748)
0

>  <LogSw> (7932748)
-6.693999999999998e+000

>  <Group> (7932748)
1

>  <Core> (7932748)
079

$$$$
5711610
  -ISIS-  03310818222D

 35 39  0  0  0  0  0  0  0  0999 V2000
    0.9000    1.0333    0.0000 C   0  0  0  0  0  0  0  0  0  0  0  0
   -0.1000    1.6208    0.0000 C   0  0  0  0  0  0  0  0  0  0  0  0
   -0.4458    1.0333    0.0000 C   0  0  0  0  0  0  0  0  0  0  0  0
    0.5792    1.6208    0.0000 C   0  0  3  0  0  0  0  0  0  0  0  0
    0.5792    0.4500    0.0000 C   0  0  0  0  0  0  0  0  0  0  0  0
   -0.1000    0.4500    0.0000 N   0  0  0  0  0  0  0  0  0  0  0  0
   -0.4458    2.1958    0.0000 C   0  0  0  0  0  0  0  0  0  0  0  0
    1.5792    1.0333    0.0000 C   0  0  0  0  0  0  0  0  0  0  0  0
    1.1542    2.6333    0.0000 C   0  0  0  0  0  0  0  0  0  0  0  0
   -1.1125    1.0333    0.0000 C   0  0  0  0  0  0  0  0  0  0  0  0
   -1.4500    1.6208    0.0000 C   0  0  3  0  0  0  0  0  0  0  0  0
   -1.1125    2.1958    0.0000 C   0  0  0  0  0  0  0  0  0  0  0  0
    1.9042    0.4125    0.0000 O   0  0  0  0  0  0  0  0  0  0  0  0
   -0.1208    2.7708    0.0000 O   0  0  0  0  0  0  0  0  0  0  0  0
    0.8375    3.2125    0.0000 C   0  0  0  0  0  0  0  0  0  0  0  0
    1.9042    1.6208    0.0000 O   0  0  0  0  0  0  0  0  0  0  0  0
   -2.1125    1.6208    0.0000 C   0  0  0  0  0  0  0  0  0  0  0  0
    2.5875    0.4000    0.0000 C   0  0  0  0  0  0  0  0  0  0  0  0
    0.9167   -0.1292    0.0000 C   0  0  0  0  0  0  0  0  0  0  0  0
    0.1500    3.2208    0.0000 F   0  0  0  0  0  0  0  0  0  0  0  0
    2.9292   -0.1792    0.0000 C   0  0  0  0  0  0  0  0  0  0  0  0
    1.8375    2.6333    0.0000 C   0  0  0  0  0  0  0  0  0  0  0  0
    1.1542    3.7833    0.0000 C   0  0  0  0  0  0  0  0  0  0  0  0
   -2.4500    2.1958    0.0000 C   0  0  0  0  0  0  0  0  0  0  0  0
   -2.4500    1.0333    0.0000 C   0  0  0  0  0  0  0  0  0  0  0  0
    2.6042   -0.7667    0.0000 C   0  0  0  0  0  0  0  0  0  0  0  0
    3.5875   -0.1792    0.0000 C   0  0  0  0  0  0  0  0  0  0  0  0
    2.1542    3.2125    0.0000 C   0  0  0  0  0  0  0  0  0  0  0  0
    1.8375    3.7833    0.0000 C   0  0  0  0  0  0  0  0  0  0  0  0
   -3.1208    2.1958    0.0000 C   0  0  0  0  0  0  0  0  0  0  0  0
   -3.1208    1.0333    0.0000 C   0  0  0  0  0  0  0  0  0  0  0  0
    3.9292   -0.7375    0.0000 C   0  0  0  0  0  0  0  0  0  0  0  0
    2.9500   -1.3292    0.0000 C   0  0  0  0  0  0  0  0  0  0  0  0
    3.6167   -1.3292    0.0000 C   0  0  0  0  0  0  0  0  0  0  0  0
   -3.4625    1.6208    0.0000 C   0  0  0  0  0  0  0  0  0  0  0  0
  2  4  1  0  0  0  0
  3  6  1  0  0  0  0
  4  1  1  0  0  0  0
  5  1  2  0  0  0  0
  6  5  1  0  0  0  0
  7  2  1  0  0  0  0
  8  1  1  0  0  0  0
  9  4  1  0  0  0  0
 10  3  1  0  0  0  0
 11 10  1  0  0  0  0
 12  7  1  0  0  0  0
 13  8  1  0  0  0  0
 14  7  2  0  0  0  0
 15  9  1  0  0  0  0
 16  8  2  0  0  0  0
 17 11  1  0  0  0  0
 18 13  1  0  0  0  0
 19  5  1  0  0  0  0
 20 15  1  0  0  0  0
 21 18  1  0  0  0  0
 22  9  2  0  0  0  0
 23 15  2  0  0  0  0
 24 17  2  0  0  0  0
 25 17  1  0  0  0  0
 26 21  2  0  0  0  0
 27 21  1  0  0  0  0
 28 22  1  0  0  0  0
 29 28  2  0  0  0  0
 30 24  1  0  0  0  0
 31 25  2  0  0  0  0
 32 27  2  0  0  0  0
 33 26  1  0  0  0  0
 34 32  1  0  0  0  0
 35 31  1  0  0  0  0
  2  3  2  0  0  0  0
 12 11  1  0  0  0  0
 23 29  1  0  0  0  0
 34 33  2  0  0  0  0
 35 30  2  0  0  0  0
M  END
>  <ID> (5711610)
5711610

>  <Supplier> (5711610)
ChemBridge

>  <clogP> (5711610)
6.000000000000000e+000

>  <RB> (5711610)
6

>  <tPSA> (5711610)
5.540000000000000e+001

>  <Hacc> (5711610)
3

>  <Hdon> (5711610)
1

>  <LogSw> (5711610)
-6.723999999999998e+000

>  <Group> (5711610)
1

>  <Core> (5711610)
085

$$$$
9047649
  -ISIS-  03310818282D

 27 30  0  0  0  0  0  0  0  0999 V2000
    7.1167    2.5875    0.0000 N   0  0  3  0  0  0  0  0  0  0  0  0
    6.0125    2.0958    0.0000 C   0  0  0  0  0  0  0  0  0  0  0  0
    6.3875    2.7458    0.0000 C   0  0  0  0  0  0  0  0  0  0  0  0
    7.2000    1.8458    0.0000 C   0  0  0  0  0  0  0  0  0  0  0  0
    6.5167    1.5375    0.0000 C   0  0  0  0  0  0  0  0  0  0  0  0
    1.5125    2.0958    0.0000 N   0  0  3  0  0  0  0  0  0  0  0  0
    3.7625    2.0958    0.0000 C   0  0  0  0  0  0  0  0  0  0  0  0
    0.7625    2.0958    0.0000 C   0  0  0  0  0  0  0  0  0  0  0  0
    4.1375    2.7458    0.0000 N   0  0  0  0  0  0  0  0  0  0  0  0
    6.0125    3.3958    0.0000 C   0  0  0  0  0  0  0  0  0  0  0  0
    5.2625    2.0958    0.0000 C   0  0  0  0  0  0  0  0  0  0  0  0
    3.0125    2.0958    0.0000 C   0  0  3  0  0  0  0  0  0  0  0  0
    4.8875    2.7458    0.0000 C   0  0  0  0  0  0  0  0  0  0  0  0
    1.8875    1.4458    0.0000 C   0  0  0  0  0  0  0  0  0  0  0  0
    1.8875    2.7458    0.0000 C   0  0  0  0  0  0  0  0  0  0  0  0
    4.1375    1.4458    0.0000 O   0  0  0  0  0  0  0  0  0  0  0  0
    0.3875    2.7458    0.0000 O   0  0  0  0  0  0  0  0  0  0  0  0
    2.6375    1.4458    0.0000 C   0  0  0  0  0  0  0  0  0  0  0  0
    2.6375    2.7458    0.0000 C   0  0  0  0  0  0  0  0  0  0  0  0
    5.2625    3.3958    0.0000 C   0  0  0  0  0  0  0  0  0  0  0  0
    7.6792    3.0875    0.0000 C   0  0  0  0  0  0  0  0  0  0  0  0
    7.8042    1.4000    0.0000 C   0  0  0  0  0  0  0  0  0  0  0  0
    6.4375    0.7958    0.0000 C   0  0  0  0  0  0  0  0  0  0  0  0
    0.3875    1.4458    0.0000 C   0  0  0  0  0  0  0  0  0  0  0  0
    8.3917    2.8583    0.0000 C   0  0  0  0  0  0  0  0  0  0  0  0
    7.0417    0.3500    0.0000 C   0  0  0  0  0  0  0  0  0  0  0  0
    7.7292    0.6583    0.0000 C   0  0  0  0  0  0  0  0  0  0  0  0
  2  3  2  0  0  0  0
  3  1  1  0  0  0  0
  4  1  1  0  0  0  0
  5  4  2  0  0  0  0
  6 15  1  0  0  0  0
  7  9  1  0  0  0  0
  8  6  1  0  0  0  0
  9 13  1  0  0  0  0
 10  3  1  0  0  0  0
 11  2  1  0  0  0  0
 12  7  1  0  0  0  0
 13 20  1  0  0  0  0
 14 18  1  0  0  0  0
 15 19  1  0  0  0  0
 16  7  2  0  0  0  0
 17  8  2  0  0  0  0
 18 12  1  0  0  0  0
 19 12  1  0  0  0  0
 20 10  2  0  0  0  0
 21  1  1  0  0  0  0
 22  4  1  0  0  0  0
 23  5  1  0  0  0  0
 24  8  1  0  0  0  0
 25 21  1  0  0  0  0
 26 27  1  0  0  0  0
 27 22  2  0  0  0  0
  2  5  1  0  0  0  0
 23 26  2  0  0  0  0
 13 11  2  0  0  0  0
  6 14  1  0  0  0  0
M  END
>  <ID> (9047649)
9047649

>  <Supplier> (9047649)
ChemBridge

>  <clogP> (9047649)
2.395000000000000e+000

>  <RB> (9047649)
2

>  <tPSA> (9047649)
5.434000000000000e+001

>  <Hacc> (9047649)
2

>  <Hdon> (9047649)
1

>  <LogSw> (9047649)
-5.816999999999998e+000

>  <Group> (9047649)
3

>  <Core> (9047649)
051

$$$$
5262018
  -ISIS-  03310818212D

 15 16  0  0  0  0  0  0  0  0999 V2000
   -1.9500    2.0458    0.0000 N   0  0  3  0  0  0  0  0  0  0  0  0
   -3.3000    2.8208    0.0000 S   0  0  0  0  0  0  0  0  0  0  0  0
   -1.2708    1.6500    0.0000 C   0  0  0  0  0  0  0  0  0  0  0  0
   -0.5958    2.0500    0.0000 C   0  0  0  0  0  0  0  0  0  0  0  0
    0.0792    1.6625    0.0000 C   0  0  0  0  0  0  0  0  0  0  0  0
    0.7500    2.0500    0.0000 C   0  0  0  0  0  0  0  0  0  0  0  0
    1.4167    1.6833    0.0000 O   0  0  0  0  0  0  0  0  0  0  0  0
   -1.9500    2.8208    0.0000 C   0  0  0  0  0  0  0  0  0  0  0  0
   -2.6208    1.6500    0.0000 C   0  0  0  0  0  0  0  0  0  0  0  0
   -2.6208    3.2083    0.0000 C   0  0  0  0  0  0  0  0  0  0  0  0
   -3.3000    2.0458    0.0000 C   0  0  0  0  0  0  0  0  0  0  0  0
    0.0792    3.2208    0.0000 C   0  0  0  0  0  0  0  0  0  0  0  0
   -0.5958    2.8333    0.0000 C   0  0  0  0  0  0  0  0  0  0  0  0
    0.7500    2.8500    0.0000 C   0  0  0  0  0  0  0  0  0  0  0  0
    1.4167    0.9000    0.0000 C   0  0  0  0  0  0  0  0  0  0  0  0
  2 11  1  0  0  0  0
  3  1  1  0  0  0  0
  4  3  1  0  0  0  0
  5  4  1  0  0  0  0
  6  5  2  0  0  0  0
  7  6  1  0  0  0  0
  8  1  1  0  0  0  0
  9  1  1  0  0  0  0
 10  8  1  0  0  0  0
 11  9  1  0  0  0  0
 12 13  1  0  0  0  0
 13  4  2  0  0  0  0
 14 12  2  0  0  0  0
 15  7  1  0  0  0  0
  2 10  1  0  0  0  0
  6 14  1  0  0  0  0
M  END
>  <ID> (5262018)
5262018

>  <Supplier> (5262018)
ChemBridge

>  <clogP> (5262018)
2.540000000000000e+000

>  <RB> (5262018)
2

>  <tPSA> (5262018)
1.247000000000000e+001

>  <Hacc> (5262018)
2

>  <Hdon> (5262018)
0

>  <LogSw> (5262018)
-1.991000000000000e+000

>  <Group> (5262018)
3

$$$$
9036701
  -ISIS-  03310818282D

 24 27  0  0  0  0  0  0  0  0999 V2000
    4.4792    1.0958    0.0000 S   0  0  3  0  0  0  0  0  0  0  0  0
    4.8542    1.7458    0.0000 N   0  0  3  0  0  0  0  0  0  0  0  0
    1.5792    1.8708    0.0000 N   0  0  3  0  0  0  0  0  0  0  0  0
    1.3167    2.5708    0.0000 N   0  0  0  0  0  0  0  0  0  0  0  0
    0.5667    2.5333    0.0000 N   0  0  0  0  0  0  0  0  0  0  0  0
    0.3750    1.8083    0.0000 N   0  0  0  0  0  0  0  0  0  0  0  0
    1.0042    1.3958    0.0000 C   0  0  0  0  0  0  0  0  0  0  0  0
    5.6042    1.7458    0.0000 C   0  0  3  0  0  0  0  0  0  0  0  0
    3.7542    1.2833    0.0000 C   0  0  0  0  0  0  0  0  0  0  0  0
    4.2250    0.3875    0.0000 O   0  0  0  0  0  0  0  0  0  0  0  0
    5.1625    0.7750    0.0000 O   0  0  0  0  0  0  0  0  0  0  0  0
    2.3042    1.6708    0.0000 C   0  0  0  0  0  0  0  0  0  0  0  0
    3.2292    0.7583    0.0000 C   0  0  0  0  0  0  0  0  0  0  0  0
    3.5625    2.0083    0.0000 C   0  0  0  0  0  0  0  0  0  0  0  0
    5.9792    2.3958    0.0000 C   0  0  3  0  0  0  0  0  0  0  0  0
    2.5042    0.9500    0.0000 C   0  0  0  0  0  0  0  0  0  0  0  0
    2.8417    2.2083    0.0000 C   0  0  0  0  0  0  0  0  0  0  0  0
    4.4792    2.3958    0.0000 C   0  0  0  0  0  0  0  0  0  0  0  0
    5.9792    1.0958    0.0000 C   0  0  0  0  0  0  0  0  0  0  0  0
    4.8542    3.0458    0.0000 C   0  0  0  0  0  0  0  0  0  0  0  0
    5.6042    3.0458    0.0000 C   0  0  0  0  0  0  0  0  0  0  0  0
    6.7292    2.3958    0.0000 C   0  0  0  0  0  0  0  0  0  0  0  0
    6.7292    1.0958    0.0000 C   0  0  0  0  0  0  0  0  0  0  0  0
    7.1042    1.7458    0.0000 C   0  0  0  0  0  0  0  0  0  0  0  0
  2  1  1  0  0  0  0
  3 12  1  0  0  0  0
  4  3  1  0  0  0  0
  5  4  2  0  0  0  0
  6  7  2  0  0  0  0
  7  3  1  0  0  0  0
  8  2  1  0  0  0  0
  9  1  1  0  0  0  0
 10  1  2  0  0  0  0
 11  1  2  0  0  0  0
 12 17  1  0  0  0  0
 13  9  2  0  0  0  0
 14  9  1  0  0  0  0
 15  8  1  0  0  0  0
 16 13  1  0  0  0  0
 17 14  2  0  0  0  0
 18  2  1  0  0  0  0
 19  8  1  0  0  0  0
 20 18  1  0  0  0  0
 21 20  1  0  0  0  0
 22 15  1  0  0  0  0
 23 19  1  0  0  0  0
 24 23  1  0  0  0  0
 12 16  2  0  0  0  0
 21 15  1  0  0  0  0
 24 22  1  0  0  0  0
  5  6  1  0  0  0  0
M  END
>  <ID> (9036701)
9036701

>  <Supplier> (9036701)
ChemBridge

>  <clogP> (9036701)
3.055000000000000e+000

>  <RB> (9036701)
2

>  <tPSA> (9036701)
8.097999999999999e+001

>  <Hacc> (9036701)
6

>  <Hdon> (9036701)
0

>  <LogSw> (9036701)
-4.342000000000000e+000

>  <Group> (9036701)
2

$$$$
9047647
  -ISIS-  03310818282D

 18 20  0  0  0  0  0  0  0  0999 V2000
    2.6417    2.4208    0.0000 S   0  0  3  0  0  0  0  0  0  0  0  0
    2.1167    1.8958    0.0000 C   0  0  0  0  0  0  0  0  0  0  0  0
    3.2917    2.0458    0.0000 N   0  0  3  0  0  0  0  0  0  0  0  0
    1.3750    2.0083    0.0000 S   0  0  0  0  0  0  0  0  0  0  0  0
    1.0292    1.3375    0.0000 C   0  0  0  0  0  0  0  0  0  0  0  0
    3.2917    1.2958    0.0000 C   0  0  0  0  0  0  0  0  0  0  0  0
    4.5917    1.2958    0.0000 N   0  0  3  0  0  0  0  0  0  0  0  0
    2.2292    1.1500    0.0000 C   0  0  0  0  0  0  0  0  0  0  0  0
    3.9417    2.4208    0.0000 C   0  0  0  0  0  0  0  0  0  0  0  0
    3.9417    0.9208    0.0000 C   0  0  3  0  0  0  0  0  0  0  0  0
    1.5625    0.8083    0.0000 C   0  0  0  0  0  0  0  0  0  0  0  0
    3.0750    3.0333    0.0000 O   0  0  0  0  0  0  0  0  0  0  0  0
    2.0667    2.9083    0.0000 O   0  0  0  0  0  0  0  0  0  0  0  0
    4.5917    2.0458    0.0000 C   0  0  0  0  0  0  0  0  0  0  0  0
    0.2917    1.2208    0.0000 Cl  0  0  0  0  0  0  0  0  0  0  0  0
    5.1500    0.7958    0.0000 C   0  0  0  0  0  0  0  0  0  0  0  0
    4.1000    0.1875    0.0000 C   0  0  0  0  0  0  0  0  0  0  0  0
    4.8417    0.1083    0.0000 C   0  0  0  0  0  0  0  0  0  0  0  0
  2  1  1  0  0  0  0
  3  1  1  0  0  0  0
  4  2  1  0  0  0  0
  5  4  1  0  0  0  0
  6  3  1  0  0  0  0
  7 14  1  0  0  0  0
  8  2  2  0  0  0  0
  9  3  1  0  0  0  0
 10  6  1  0  0  0  0
 11  8  1  0  0  0  0
 12  1  2  0  0  0  0
 13  1  2  0  0  0  0
 14  9  1  0  0  0  0
 15  5  1  0  0  0  0
 16  7  1  0  0  0  0
 17 10  1  0  0  0  0
 18 17  1  0  0  0  0
 10  7  1  0  0  0  0
  5 11  2  0  0  0  0
 18 16  1  0  0  0  0
M  END
>  <ID> (9047647)
9047647

>  <Supplier> (9047647)
ChemBridge

>  <clogP> (9047647)
2.528000000000000e+000

>  <RB> (9047647)
1

>  <tPSA> (9047647)
4.061999999999998e+001

>  <Hacc> (9047647)
4

>  <Hdon> (9047647)
0

>  <LogSw> (9047647)
-2.046000000000000e+000

>  <Group> (9047647)
3

$$$$
9047646
  -ISIS-  03310818282D

 21 23  0  0  0  0  0  0  0  0999 V2000
    5.3750    0.9083    0.0000 N   0  0  3  0  0  0  0  0  0  0  0  0
    5.8125    1.5125    0.0000 C   0  0  0  0  0  0  0  0  0  0  0  0
    5.3750    2.1208    0.0000 N   0  0  0  0  0  0  0  0  0  0  0  0
    4.6542    1.1375    0.0000 C   0  0  0  0  0  0  0  0  0  0  0  0
    4.6542    1.8958    0.0000 N   0  0  0  0  0  0  0  0  0  0  0  0
    4.0542    0.6958    0.0000 S   0  0  0  0  0  0  0  0  0  0  0  0
    6.5625    1.5125    0.0000 C   0  0  0  0  0  0  0  0  0  0  0  0
    1.4667    0.4250    0.0000 C   0  0  3  0  0  0  0  0  0  0  0  0
    2.7625    0.5625    0.0000 C   0  0  0  0  0  0  0  0  0  0  0  0
    2.0667    0.8708    0.0000 N   0  0  0  0  0  0  0  0  0  0  0  0
    0.7250    0.3458    0.0000 C   0  0  0  0  0  0  0  0  0  0  0  0
    1.1625   -0.2542    0.0000 C   0  0  0  0  0  0  0  0  0  0  0  0
    2.8417   -0.1792    0.0000 O   0  0  0  0  0  0  0  0  0  0  0  0
    3.3667    1.0083    0.0000 C   0  0  0  0  0  0  0  0  0  0  0  0
    6.9375    0.8625    0.0000 C   0  0  0  0  0  0  0  0  0  0  0  0
    6.9375    2.1625    0.0000 C   0  0  0  0  0  0  0  0  0  0  0  0
    5.6042    0.1958    0.0000 C   0  0  0  0  0  0  0  0  0  0  0  0
    7.6875    0.8625    0.0000 C   0  0  0  0  0  0  0  0  0  0  0  0
    7.6875    2.1625    0.0000 C   0  0  0  0  0  0  0  0  0  0  0  0
    8.0625    1.5125    0.0000 C   0  0  0  0  0  0  0  0  0  0  0  0
    8.8125    1.5125    0.0000 C   0  0  0  0  0  0  0  0  0  0  0  0
  2  1  1  0  0  0  0
  3  2  2  0  0  0  0
  4  1  1  0  0  0  0
  5  4  2  0  0  0  0
  6  4  1  0  0  0  0
  7  2  1  0  0  0  0
  8 10  1  0  0  0  0
  9 14  1  0  0  0  0
 10  9  1  0  0  0  0
 11  8  1  0  0  0  0
 12  8  1  0  0  0  0
 13  9  2  0  0  0  0
 14  6  1  0  0  0  0
 15  7  1  0  0  0  0
 16  7  2  0  0  0  0
 17  1  1  0  0  0  0
 18 15  2  0  0  0  0
 19 16  1  0  0  0  0
 20 19  2  0  0  0  0
 21 20  1  0  0  0  0
  3  5  1  0  0  0  0
 18 20  1  0  0  0  0
 12 11  1  0  0  0  0
M  END
>  <ID> (9047646)
9047646

>  <Supplier> (9047646)
ChemBridge

>  <clogP> (9047646)
1.106000000000000e+000

>  <RB> (9047646)
5

>  <tPSA> (9047646)
5.981000000000002e+001

>  <Hacc> (9047646)
3

>  <Hdon> (9047646)
1

>  <LogSw> (9047646)
-3.546000000000000e+000

>  <Group> (9047646)
2

>  <Core> (9047646)
009

$$$$
9047641
  -ISIS-  03310818282D

 28 30  0  0  0  0  0  0  0  0999 V2000
    4.0042    4.2292    0.0000 C   0  0  0  0  0  0  0  0  0  0  0  0
    3.2542    4.2292    0.0000 N   0  0  0  0  0  0  0  0  0  0  0  0
    2.8792    3.5875    0.0000 C   0  0  0  0  0  0  0  0  0  0  0  0
    5.1292    4.8792    0.0000 N   0  0  3  0  0  0  0  0  0  0  0  0
    6.6292    4.8792    0.0000 N   0  0  3  0  0  0  0  0  0  0  0  0
    2.1292    3.5875    0.0000 C   0  0  0  0  0  0  0  0  0  0  0  0
    1.7542    2.9375    0.0000 C   0  0  0  0  0  0  0  0  0  0  0  0
    4.3792    4.8792    0.0000 C   0  0  0  0  0  0  0  0  0  0  0  0
    4.3792    3.5875    0.0000 O   0  0  0  0  0  0  0  0  0  0  0  0
    3.2542    2.9375    0.0000 C   0  0  0  0  0  0  0  0  0  0  0  0
    7.3792    4.8792    0.0000 C   0  0  0  0  0  0  0  0  0  0  0  0
    2.1292    2.2875    0.0000 C   0  0  0  0  0  0  0  0  0  0  0  0
    6.2542    5.5292    0.0000 C   0  0  0  0  0  0  0  0  0  0  0  0
    5.5042    5.5292    0.0000 C   0  0  0  0  0  0  0  0  0  0  0  0
    5.5042    4.2292    0.0000 C   0  0  0  0  0  0  0  0  0  0  0  0
    6.2542    4.2292    0.0000 C   0  0  0  0  0  0  0  0  0  0  0  0
    7.7542    4.2292    0.0000 C   0  0  0  0  0  0  0  0  0  0  0  0
    8.5042    2.9375    0.0000 C   0  0  0  0  0  0  0  0  0  0  0  0
    2.8792    2.2875    0.0000 C   0  0  0  0  0  0  0  0  0  0  0  0
    1.7542    4.2292    0.0000 O   0  0  0  0  0  0  0  0  0  0  0  0
    8.8792    2.2875    0.0000 F   0  0  0  0  0  0  0  0  0  0  0  0
    7.7542    2.9375    0.0000 C   0  0  0  0  0  0  0  0  0  0  0  0
    8.8792    3.5875    0.0000 C   0  0  0  0  0  0  0  0  0  0  0  0
    8.5042    4.2292    0.0000 C   0  0  0  0  0  0  0  0  0  0  0  0
    7.3792    3.5875    0.0000 C   0  0  0  0  0  0  0  0  0  0  0  0
    1.7542    1.6375    0.0000 O   0  0  0  0  0  0  0  0  0  0  0  0
    1.0042    4.2292    0.0000 C   0  0  0  0  0  0  0  0  0  0  0  0
    2.1292    0.9958    0.0000 C   0  0  0  0  0  0  0  0  0  0  0  0
  2  1  1  0  0  0  0
  3  2  1  0  0  0  0
  4  8  1  0  0  0  0
  5 16  1  0  0  0  0
  6  3  1  0  0  0  0
  7  6  2  0  0  0  0
  8  1  1  0  0  0  0
  9  1  2  0  0  0  0
 10  3  2  0  0  0  0
 11  5  1  0  0  0  0
 12 19  2  0  0  0  0
 13 14  1  0  0  0  0
 14  4  1  0  0  0  0
 15  4  1  0  0  0  0
 16 15  1  0  0  0  0
 17 11  1  0  0  0  0
 18 22  1  0  0  0  0
 19 10  1  0  0  0  0
 20  6  1  0  0  0  0
 21 18  1  0  0  0  0
 22 25  2  0  0  0  0
 23 24  1  0  0  0  0
 24 17  2  0  0  0  0
 25 17  1  0  0  0  0
 26 12  1  0  0  0  0
 27 20  1  0  0  0  0
 28 26  1  0  0  0  0
 13  5  1  0  0  0  0
  7 12  1  0  0  0  0
 23 18  2  0  0  0  0
M  END
>  <ID> (9047641)
9047641

>  <Supplier> (9047641)
ChemBridge

>  <clogP> (9047641)
3.228000000000000e+000

>  <RB> (9047641)
5

>  <tPSA> (9047641)
5.404000000000000e+001

>  <Hacc> (9047641)
5

>  <Hdon> (9047641)
1

>  <LogSw> (9047641)
-3.560000000000000e+000

>  <Group> (9047641)
3

>  <Core> (9047641)
164

$$$$
9047640
  -ISIS-  03310818282D

 24 26  0  0  0  0  0  0  0  0999 V2000
    9.6792    3.3000    0.0000 N   0  0  3  0  0  0  0  0  0  0  0  0
    9.6042    2.5583    0.0000 C   0  0  0  0  0  0  0  0  0  0  0  0
   10.2917    2.2500    0.0000 N   0  0  0  0  0  0  0  0  0  0  0  0
   10.7917    2.8083    0.0000 N   0  0  0  0  0  0  0  0  0  0  0  0
   10.4167    3.4583    0.0000 C   0  0  0  0  0  0  0  0  0  0  0  0
    6.3542    2.1833    0.0000 C   0  0  0  0  0  0  0  0  0  0  0  0
    7.0042    2.5583    0.0000 N   0  0  0  0  0  0  0  0  0  0  0  0
    8.9542    2.1833    0.0000 S   0  0  0  0  0  0  0  0  0  0  0  0
    7.6542    2.1833    0.0000 C   0  0  0  0  0  0  0  0  0  0  0  0
    5.7042    2.5583    0.0000 C   0  0  0  0  0  0  0  0  0  0  0  0
    7.6542    1.4333    0.0000 O   0  0  0  0  0  0  0  0  0  0  0  0
    9.1250    3.8000    0.0000 C   0  0  0  0  0  0  0  0  0  0  0  0
    8.3042    2.5583    0.0000 C   0  0  0  0  0  0  0  0  0  0  0  0
    9.2792    4.5292    0.0000 C   0  0  0  0  0  0  0  0  0  0  0  0
    8.7250    5.0292    0.0000 C   0  0  0  0  0  0  0  0  0  0  0  0
    5.0542    2.1833    0.0000 C   0  0  0  0  0  0  0  0  0  0  0  0
   10.7167    4.1375    0.0000 C   0  0  0  0  0  0  0  0  0  0  0  0
    6.3542    1.4333    0.0000 C   0  0  0  0  0  0  0  0  0  0  0  0
    5.7042    1.0583    0.0000 C   0  0  0  0  0  0  0  0  0  0  0  0
    5.7042    3.3083    0.0000 C   0  0  0  0  0  0  0  0  0  0  0  0
    5.0542    1.4333    0.0000 C   0  0  0  0  0  0  0  0  0  0  0  0
    4.4042    2.5583    0.0000 C   0  0  0  0  0  0  0  0  0  0  0  0
    5.0542    3.6833    0.0000 C   0  0  0  0  0  0  0  0  0  0  0  0
    4.4042    3.3083    0.0000 C   0  0  0  0  0  0  0  0  0  0  0  0
  2  1  1  0  0  0  0
  3  2  2  0  0  0  0
  4  5  2  0  0  0  0
  5  1  1  0  0  0  0
  6  7  1  0  0  0  0
  7  9  1  0  0  0  0
  8  2  1  0  0  0  0
  9 13  1  0  0  0  0
 10  6  1  0  0  0  0
 11  9  2  0  0  0  0
 12  1  1  0  0  0  0
 13  8  1  0  0  0  0
 14 12  1  0  0  0  0
 15 14  2  0  0  0  0
 16 10  2  0  0  0  0
 17  5  1  0  0  0  0
 18  6  2  0  0  0  0
 19 18  1  0  0  0  0
 20 10  1  0  0  0  0
 21 19  2  0  0  0  0
 22 16  1  0  0  0  0
 23 20  2  0  0  0  0
 24 23  1  0  0  0  0
  4  3  1  0  0  0  0
 16 21  1  0  0  0  0
 24 22  2  0  0  0  0
M  END
>  <ID> (9047640)
9047640

>  <Supplier> (9047640)
ChemBridge

>  <clogP> (9047640)
2.354000000000000e+000

>  <RB> (9047640)
6

>  <tPSA> (9047640)
5.981000000000002e+001

>  <Hacc> (9047640)
3

>  <Hdon> (9047640)
1

>  <LogSw> (9047640)
-4.882000000000000e+000

>  <Group> (9047640)
2

>  <Core> (9047640)
009

$$$$
9047643
  -ISIS-  03310818282D

 17 19  0  0  0  0  0  0  0  0999 V2000
    3.4750    1.9750    0.0000 N   0  0  0  0  0  0  0  0  0  0  0  0
    0.0375    1.7208    0.0000 C   0  0  0  0  0  0  0  0  0  0  0  0
    2.2875    1.7208    0.0000 C   0  0  0  0  0  0  0  0  0  0  0  0
    0.4125    1.0708    0.0000 N   0  0  0  0  0  0  0  0  0  0  0  0
    3.3917    1.2250    0.0000 N   0  0  0  0  0  0  0  0  0  0  0  0
    2.6625    1.0708    0.0000 C   0  0  0  0  0  0  0  0  0  0  0  0
    1.1625    1.0708    0.0000 C   0  0  0  0  0  0  0  0  0  0  0  0
    1.5375    1.7208    0.0000 C   0  0  0  0  0  0  0  0  0  0  0  0
    2.7875    2.2833    0.0000 C   0  0  0  0  0  0  0  0  0  0  0  0
    0.4125    2.3708    0.0000 O   0  0  0  0  0  0  0  0  0  0  0  0
   -0.7125    1.7208    0.0000 C   0  0  3  0  0  0  0  0  0  0  0  0
    2.2875    0.4208    0.0000 C   0  0  0  0  0  0  0  0  0  0  0  0
    1.5375    0.4208    0.0000 C   0  0  0  0  0  0  0  0  0  0  0  0
   -1.1583    2.3333    0.0000 C   0  0  0  0  0  0  0  0  0  0  0  0
   -1.1583    1.1125    0.0000 C   0  0  0  0  0  0  0  0  0  0  0  0
   -1.8708    2.0958    0.0000 C   0  0  0  0  0  0  0  0  0  0  0  0
   -1.8708    1.3458    0.0000 C   0  0  0  0  0  0  0  0  0  0  0  0
  2  4  1  0  0  0  0
  3  9  1  0  0  0  0
  4  7  1  0  0  0  0
  5  1  1  0  0  0  0
  6  5  1  0  0  0  0
  7  8  2  0  0  0  0
  8  3  1  0  0  0  0
  9  1  2  0  0  0  0
 10  2  2  0  0  0  0
 11  2  1  0  0  0  0
 12  6  1  0  0  0  0
 13 12  2  0  0  0  0
 14 11  1  0  0  0  0
 15 11  1  0  0  0  0
 16 14  1  0  0  0  0
 17 15  1  0  0  0  0
  6  3  2  0  0  0  0
  7 13  1  0  0  0  0
 17 16  1  0  0  0  0
M  END
>  <ID> (9047643)
9047643

>  <Supplier> (9047643)
ChemBridge

>  <clogP> (9047643)
2.702000000000000e+000

>  <RB> (9047643)
2

>  <tPSA> (9047643)
5.778000000000000e+001

>  <Hacc> (9047643)
2

>  <Hdon> (9047643)
2

>  <LogSw> (9047643)
-2.683000000000000e+000

>  <Group> (9047643)
3

$$$$
9047642
  -ISIS-  03310818282D

 28 30  0  0  0  0  0  0  0  0999 V2000
    6.6875    1.4083    0.0000 N   0  0  3  0  0  0  0  0  0  0  0  0
    4.0917    0.6583    0.0000 C   0  0  0  0  0  0  0  0  0  0  0  0
    3.4417    0.2833    0.0000 N   0  0  0  0  0  0  0  0  0  0  0  0
    2.7917    0.6583    0.0000 C   0  0  0  0  0  0  0  0  0  0  0  0
    5.3917    0.6583    0.0000 N   0  0  3  0  0  0  0  0  0  0  0  0
    2.7917    1.4083    0.0000 C   0  0  0  0  0  0  0  0  0  0  0  0
    2.1417    1.7833    0.0000 C   0  0  0  0  0  0  0  0  0  0  0  0
    7.3375    1.7833    0.0000 C   0  0  0  0  0  0  0  0  0  0  0  0
    4.7417    0.2833    0.0000 C   0  0  0  0  0  0  0  0  0  0  0  0
    6.6875    0.6583    0.0000 C   0  0  0  0  0  0  0  0  0  0  0  0
    6.0417    1.7833    0.0000 C   0  0  0  0  0  0  0  0  0  0  0  0
    4.0917    1.4083    0.0000 O   0  0  0  0  0  0  0  0  0  0  0  0
    2.1417    0.2833    0.0000 C   0  0  0  0  0  0  0  0  0  0  0  0
    7.9875    1.4083    0.0000 C   0  0  0  0  0  0  0  0  0  0  0  0
    7.3375    2.5333    0.0000 C   0  0  0  0  0  0  0  0  0  0  0  0
    6.0417    0.2833    0.0000 C   0  0  0  0  0  0  0  0  0  0  0  0
    5.3917    1.4083    0.0000 C   0  0  0  0  0  0  0  0  0  0  0  0
    1.4917    1.4083    0.0000 C   0  0  0  0  0  0  0  0  0  0  0  0
    8.6375    2.5333    0.0000 C   0  0  0  0  0  0  0  0  0  0  0  0
    1.4917    0.6583    0.0000 C   0  0  0  0  0  0  0  0  0  0  0  0
    3.4417    1.7833    0.0000 O   0  0  0  0  0  0  0  0  0  0  0  0
    7.9875    2.9083    0.0000 C   0  0  0  0  0  0  0  0  0  0  0  0
    8.6375    1.7833    0.0000 C   0  0  0  0  0  0  0  0  0  0  0  0
    0.8417    1.7833    0.0000 O   0  0  0  0  0  0  0  0  0  0  0  0
    9.2875    2.9083    0.0000 O   0  0  0  0  0  0  0  0  0  0  0  0
    3.4417    2.5333    0.0000 C   0  0  0  0  0  0  0  0  0  0  0  0
    0.1917    1.4083    0.0000 C   0  0  0  0  0  0  0  0  0  0  0  0
    9.9375    2.5333    0.0000 C   0  0  0  0  0  0  0  0  0  0  0  0
  2  9  1  0  0  0  0
  3  2  1  0  0  0  0
  4  3  1  0  0  0  0
  5 17  1  0  0  0  0
  6  4  1  0  0  0  0
  7  6  2  0  0  0  0
  8  1  1  0  0  0  0
  9  5  1  0  0  0  0
 10  1  1  0  0  0  0
 11  1  1  0  0  0  0
 12  2  2  0  0  0  0
 13  4  2  0  0  0  0
 14  8  2  0  0  0  0
 15  8  1  0  0  0  0
 16 10  1  0  0  0  0
 17 11  1  0  0  0  0
 18 20  2  0  0  0  0
 19 22  1  0  0  0  0
 20 13  1  0  0  0  0
 21  6  1  0  0  0  0
 22 15  2  0  0  0  0
 23 14  1  0  0  0  0
 24 18  1  0  0  0  0
 25 19  1  0  0  0  0
 26 21  1  0  0  0  0
 27 24  1  0  0  0  0
 28 25  1  0  0  0  0
 16  5  1  0  0  0  0
 19 23  2  0  0  0  0
  7 18  1  0  0  0  0
M  END
>  <ID> (9047642)
9047642

>  <Supplier> (9047642)
ChemBridge

>  <clogP> (9047642)
2.069000000000000e+000

>  <RB> (9047642)
4

>  <tPSA> (9047642)
6.326999999999998e+001

>  <Hacc> (9047642)
5

>  <Hdon> (9047642)
1

>  <LogSw> (9047642)
-3.805000000000000e+000

>  <Group> (9047642)
2

>  <Core> (9047642)
162

$$$$
7000022
  -ISIS-  03310818252D

 24 27  0  0  0  0  0  0  0  0999 V2000
    0.3000   -1.0000    0.0000 C   0  0  0  0  0  0  0  0  0  0  0  0
    1.5500   -4.6375    0.0000 C   0  0  0  0  0  0  0  0  0  0  0  0
    6.8000    1.0958    0.0000 N   0  0  3  0  0  0  0  0  0  0  0  0
    5.4875   -5.4875    0.0000 N   0  0  0  0  0  0  0  0  0  0  0  0
    8.1167   -2.5292    0.0000 C   0  0  0  0  0  0  0  0  0  0  0  0
    2.9000    1.9208    0.0000 C   0  0  0  0  0  0  0  0  0  0  0  0
   -3.4833   -1.0000    0.0000 C   0  0  0  0  0  0  0  0  0  0  0  0
   -4.6458   -4.7542    0.0000 C   0  0  0  0  0  0  0  0  0  0  0  0
   -1.5208   -6.9542    0.0000 S   0  0  0  0  0  0  0  0  0  0  0  0
   -8.5042   -5.7042    0.0000 C   0  0  3  0  0  0  0  0  0  0  0  0
   -6.1292    1.7458    0.0000 C   0  0  0  0  0  0  0  0  0  0  0  0
  -10.0667    0.9125    0.0000 C   0  0  3  0  0  0  0  0  0  0  0  0
    9.4292    4.1167    0.0000 C   0  0  0  0  0  0  0  0  0  0  0  0
    1.6667    5.6667    0.0000 O   0  0  0  0  0  0  0  0  0  0  0  0
   11.9292   -3.2875    0.0000 S   0  0  0  0  0  0  0  0  0  0  0  0
  -11.1292   -2.7667    0.0000 C   0  0  0  0  0  0  0  0  0  0  0  0
   -9.6292   -9.4542    0.0000 C   0  0  0  0  0  0  0  0  0  0  0  0
  -13.8792    1.7458    0.0000 C   0  0  0  0  0  0  0  0  0  0  0  0
  -10.0667    4.8167    0.0000 C   0  0  0  0  0  0  0  0  0  0  0  0
    8.2042    7.7167    0.0000 C   0  0  0  0  0  0  0  0  0  0  0  0
   13.3667    3.2958    0.0000 C   0  0  0  0  0  0  0  0  0  0  0  0
   16.0000    6.2167    0.0000 C   0  0  0  0  0  0  0  0  0  0  0  0
   10.7667   10.7375    0.0000 C   0  0  0  0  0  0  0  0  0  0  0  0
   14.6167    9.9167    0.0000 C   0  0  0  0  0  0  0  0  0  0  0  0
  2  1  2  0  0  0  0
  3  6  1  0  0  0  0
  4  2  1  0  0  0  0
  5  3  1  0  0  0  0
  6  1  1  0  0  0  0
  7  1  1  0  0  0  0
  8  7  2  0  0  0  0
  9  2  1  0  0  0  0
 10  8  1  0  0  0  0
 11  7  1  0  0  0  0
 12 11  1  0  0  0  0
 13  3  1  0  0  0  0
 14  6  2  0  0  0  0
 15  5  1  0  0  0  0
 16 12  1  0  0  0  0
 17 10  1  0  0  0  0
 18 12  1  0  0  0  0
 19 12  1  0  0  0  0
 20 13  2  0  0  0  0
 21 13  1  0  0  0  0
 22 21  2  0  0  0  0
 23 20  1  0  0  0  0
 24 22  1  0  0  0  0
  8  9  1  0  0  0  0
  4  5  2  0  0  0  0
 10 16  1  0  0  0  0
 23 24  2  0  0  0  0
M  END
>  <ID> (7000022)
7000022

>  <Supplier> (7000022)
ChemBridge

>  <clogP> (7000022)
5.670000000000000e+000

>  <RB> (7000022)
1

>  <tPSA> (7000022)
3.489000000000000e+001

>  <Hacc> (7000022)
2

>  <Hdon> (7000022)
0

>  <LogSw> (7000022)
-6.642000000000000e+000

>  <Group> (7000022)
1

>  <Core> (7000022)
041

$$$$
7761806
  -ISIS-  03310818272D

 21 22  0  0  0  0  0  0  0  0999 V2000
   -0.1333    1.5625    0.0000 N   0  0  3  0  0  0  0  0  0  0  0  0
   -0.8708    2.1208    0.0000 C   0  0  0  0  0  0  0  0  0  0  0  0
   -0.5708    3.0000    0.0000 N   0  0  0  0  0  0  0  0  0  0  0  0
    0.6292    2.1000    0.0000 C   0  0  0  0  0  0  0  0  0  0  0  0
    0.3667    2.9833    0.0000 N   0  0  0  0  0  0  0  0  0  0  0  0
   -1.7500    1.8833    0.0000 C   0  0  0  0  0  0  0  0  0  0  0  0
    1.5042    1.8000    0.0000 S   0  0  0  0  0  0  0  0  0  0  0  0
   -1.9958    1.0000    0.0000 C   0  0  0  0  0  0  0  0  0  0  0  0
   -2.8958    0.7458    0.0000 C   0  0  0  0  0  0  0  0  0  0  0  0
    3.0875    2.1625    0.0000 C   0  0  0  0  0  0  0  0  0  0  0  0
   -3.5333    1.4000    0.0000 C   0  0  0  0  0  0  0  0  0  0  0  0
   -2.4125    2.5458    0.0000 C   0  0  0  0  0  0  0  0  0  0  0  0
    3.2875    1.2625    0.0000 O   0  0  0  0  0  0  0  0  0  0  0  0
   -3.2958    2.3000    0.0000 C   0  0  0  0  0  0  0  0  0  0  0  0
    2.2042    2.4458    0.0000 C   0  0  0  0  0  0  0  0  0  0  0  0
   -0.1333    0.6208    0.0000 C   0  0  0  0  0  0  0  0  0  0  0  0
    3.7667    2.7833    0.0000 N   0  0  0  0  0  0  0  0  0  0  0  0
   -3.1333   -0.1542    0.0000 O   0  0  0  0  0  0  0  0  0  0  0  0
   -4.4333    1.1625    0.0000 O   0  0  0  0  0  0  0  0  0  0  0  0
   -4.0208   -0.4000    0.0000 C   0  0  0  0  0  0  0  0  0  0  0  0
   -4.6958    0.2625    0.0000 C   0  0  0  0  0  0  0  0  0  0  0  0
  2  1  1  0  0  0  0
  3  2  2  0  0  0  0
  4  1  1  0  0  0  0
  5  4  2  0  0  0  0
  6  2  1  0  0  0  0
  7  4  1  0  0  0  0
  8  6  2  0  0  0  0
  9  8  1  0  0  0  0
 10 15  1  0  0  0  0
 11 14  1  0  0  0  0
 12  6  1  0  0  0  0
 13 10  2  0  0  0  0
 14 12  2  0  0  0  0
 15  7  1  0  0  0  0
 16  1  1  0  0  0  0
 17 10  1  0  0  0  0
 18  9  1  0  0  0  0
 19 11  1  0  0  0  0
 20 18  1  0  0  0  0
 21 19  1  0  0  0  0
  3  5  1  0  0  0  0
 11  9  2  0  0  0  0
M  END
>  <ID> (7761806)
7761806

>  <Supplier> (7761806)
ChemBridge

>  <clogP> (7761806)
-2.330000000000000e-001

>  <RB> (7761806)
4

>  <tPSA> (7761806)
9.226000000000001e+001

>  <Hacc> (7761806)
6

>  <Hdon> (7761806)
1

>  <LogSw> (7761806)
-3.051000000000000e+000

>  <Group> (7761806)
3

>  <Core> (7761806)
009

$$$$
7849232
  -ISIS-  03310818272D

 24 26  0  0  0  0  0  0  0  0999 V2000
    6.4542    1.2875    0.0000 C   0  0  0  0  0  0  0  0  0  0  0  0
    5.8042    0.9125    0.0000 N   0  0  3  0  0  0  0  0  0  0  0  0
    7.1042    0.9125    0.0000 N   0  0  0  0  0  0  0  0  0  0  0  0
    6.4542    2.0375    0.0000 S   0  0  0  0  0  0  0  0  0  0  0  0
    9.0500    1.2875    0.0000 C   0  0  0  0  0  0  0  0  0  0  0  0
    7.7542    1.2875    0.0000 C   0  0  0  0  0  0  0  0  0  0  0  0
    8.4000    0.9125    0.0000 C   0  0  0  0  0  0  0  0  0  0  0  0
    5.1542    1.2875    0.0000 C   0  0  0  0  0  0  0  0  0  0  0  0
    5.8042    0.1625    0.0000 C   0  0  0  0  0  0  0  0  0  0  0  0
    9.0500    2.0375    0.0000 C   0  0  0  0  0  0  0  0  0  0  0  0
    8.4000    2.4125    0.0000 C   0  0  0  0  0  0  0  0  0  0  0  0
    7.7542    2.0375    0.0000 C   0  0  0  0  0  0  0  0  0  0  0  0
    3.8542   -0.2125    0.0000 C   0  0  0  0  0  0  0  0  0  0  0  0
    5.1542   -0.2125    0.0000 C   0  0  0  0  0  0  0  0  0  0  0  0
    4.5042    0.9125    0.0000 C   0  0  0  0  0  0  0  0  0  0  0  0
    4.5042    0.1625    0.0000 C   0  0  3  0  0  0  0  0  0  0  0  0
    3.2042    0.1625    0.0000 C   0  0  0  0  0  0  0  0  0  0  0  0
    9.7000    0.9125    0.0000 C   0  0  0  0  0  0  0  0  0  0  0  0
    9.7000    2.4125    0.0000 C   0  0  0  0  0  0  0  0  0  0  0  0
    3.2042    0.9125    0.0000 C   0  0  0  0  0  0  0  0  0  0  0  0
    2.5542   -0.2125    0.0000 C   0  0  0  0  0  0  0  0  0  0  0  0
    1.9042    0.1625    0.0000 C   0  0  0  0  0  0  0  0  0  0  0  0
    2.5542    1.2875    0.0000 C   0  0  0  0  0  0  0  0  0  0  0  0
    1.9042    0.9125    0.0000 C   0  0  0  0  0  0  0  0  0  0  0  0
  2  1  1  0  0  0  0
  3  1  1  0  0  0  0
  4  1  2  0  0  0  0
  5  7  2  0  0  0  0
  6  3  1  0  0  0  0
  7  6  1  0  0  0  0
  8  2  1  0  0  0  0
  9  2  1  0  0  0  0
 10 11  2  0  0  0  0
 11 12  1  0  0  0  0
 12  6  2  0  0  0  0
 13 16  1  0  0  0  0
 14  9  1  0  0  0  0
 15  8  1  0  0  0  0
 16 14  1  0  0  0  0
 17 13  1  0  0  0  0
 18  5  1  0  0  0  0
 19 10  1  0  0  0  0
 20 17  1  0  0  0  0
 21 17  2  0  0  0  0
 22 21  1  0  0  0  0
 23 20  2  0  0  0  0
 24 22  2  0  0  0  0
 15 16  1  0  0  0  0
  5 10  1  0  0  0  0
 23 24  1  0  0  0  0
M  END
>  <ID> (7849232)
7849232

>  <Supplier> (7849232)
ChemBridge

>  <clogP> (7849232)
5.875000000000000e+000

>  <RB> (7849232)
3

>  <tPSA> (7849232)
1.527000000000000e+001

>  <Hacc> (7849232)
0

>  <Hdon> (7849232)
1

>  <LogSw> (7849232)
-5.678000000000000e+000

>  <Group> (7849232)
1

$$$$
7054288
  -ISIS-  03310818252D

 20 22  0  0  0  0  0  0  0  0999 V2000
    3.5042   -3.4375    0.0000 N   0  0  0  0  0  0  0  0  0  0  0  0
    2.8292   -2.2625    0.0000 C   0  0  0  0  0  0  0  0  0  0  0  0
    4.0542   -2.8250    0.0000 C   0  0  0  0  0  0  0  0  0  0  0  0
    0.7625   -1.4792    0.0000 N   0  0  3  0  0  0  0  0  0  0  0  0
    2.7500   -3.1042    0.0000 C   0  0  0  0  0  0  0  0  0  0  0  0
    1.4292   -1.9625    0.0000 C   0  0  0  0  0  0  0  0  0  0  0  0
    2.2167   -1.7042    0.0000 C   0  0  0  0  0  0  0  0  0  0  0  0
    3.6417   -2.1125    0.0000 N   0  0  0  0  0  0  0  0  0  0  0  0
    0.7667   -0.6542    0.0000 C   0  0  0  0  0  0  0  0  0  0  0  0
    0.0500   -0.2417    0.0000 C   0  0  0  0  0  0  0  0  0  0  0  0
    0.1000   -1.9625    0.0000 C   0  0  0  0  0  0  0  0  0  0  0  0
    1.1750   -2.7500    0.0000 C   0  0  0  0  0  0  0  0  0  0  0  0
    0.3500   -2.7500    0.0000 C   0  0  0  0  0  0  0  0  0  0  0  0
    4.8792   -2.9125    0.0000 O   0  0  0  0  0  0  0  0  0  0  0  0
    2.0417   -3.5167    0.0000 O   0  0  0  0  0  0  0  0  0  0  0  0
    0.0542    0.5833    0.0000 C   0  0  0  0  0  0  0  0  0  0  0  0
   -0.6708    0.9958    0.0000 Br  0  0  0  0  0  0  0  0  0  0  0  0
    1.4792   -0.2417    0.0000 C   0  0  0  0  0  0  0  0  0  0  0  0
    1.4792    0.5833    0.0000 C   0  0  0  0  0  0  0  0  0  0  0  0
    0.7667    0.9958    0.0000 C   0  0  0  0  0  0  0  0  0  0  0  0
  2  5  1  0  0  0  0
  3  1  1  0  0  0  0
  4  6  1  0  0  0  0
  5  1  1  0  0  0  0
  6  7  1  0  0  0  0
  7  2  2  0  0  0  0
  8  3  1  0  0  0  0
  9  4  1  0  0  0  0
 10  9  1  0  0  0  0
 11  4  1  0  0  0  0
 12  6  2  0  0  0  0
 13 12  1  0  0  0  0
 14  3  2  0  0  0  0
 15  5  2  0  0  0  0
 16 10  2  0  0  0  0
 17 16  1  0  0  0  0
 18  9  2  0  0  0  0
 19 18  1  0  0  0  0
 20 19  2  0  0  0  0
  2  8  1  0  0  0  0
 11 13  2  0  0  0  0
 20 16  1  0  0  0  0
M  END
>  <ID> (7054288)
7054288

>  <Supplier> (7054288)
ChemBridge

>  <clogP> (7054288)
2.870000000000000e+000

>  <RB> (7054288)
2

>  <tPSA> (7054288)
6.313000000000000e+001

>  <Hacc> (7054288)
3

>  <Hdon> (7054288)
2

>  <LogSw> (7054288)
-4.073000000000000e+000

>  <Group> (7054288)
2

>  <Core> (7054288)
003

$$$$
7849234
  -ISIS-  03310818272D

 18 20  0  0  0  0  0  0  0  0999 V2000
    6.8792    3.1458    0.0000 N   0  0  0  0  0  0  0  0  0  0  0  0
    3.1292    2.6000    0.0000 C   0  0  0  0  0  0  0  0  0  0  0  0
    6.2792    3.5833    0.0000 C   0  0  0  0  0  0  0  0  0  0  0  0
    5.6667    3.1458    0.0000 C   0  0  0  0  0  0  0  0  0  0  0  0
    5.9042    2.4250    0.0000 C   0  0  0  0  0  0  0  0  0  0  0  0
    2.4167    2.8333    0.0000 N   0  0  0  0  0  0  0  0  0  0  0  0
    1.8542    2.3333    0.0000 C   0  0  3  0  0  0  0  0  0  0  0  0
    6.6542    2.4250    0.0000 C   0  0  0  0  0  0  0  0  0  0  0  0
    3.2875    1.8708    0.0000 S   0  0  0  0  0  0  0  0  0  0  0  0
    1.1250    2.1750    0.0000 C   0  0  0  0  0  0  0  0  0  0  0  0
    1.6292    1.6208    0.0000 C   0  0  0  0  0  0  0  0  0  0  0  0
    3.6875    3.1083    0.0000 N   0  0  0  0  0  0  0  0  0  0  0  0
    4.4000    2.8708    0.0000 C   0  0  0  0  0  0  0  0  0  0  0  0
    4.9542    3.3708    0.0000 C   0  0  0  0  0  0  0  0  0  0  0  0
    5.5292    1.7750    0.0000 C   0  0  0  0  0  0  0  0  0  0  0  0
    7.0292    1.7750    0.0000 C   0  0  0  0  0  0  0  0  0  0  0  0
    5.9042    1.1250    0.0000 C   0  0  0  0  0  0  0  0  0  0  0  0
    6.6542    1.1250    0.0000 C   0  0  0  0  0  0  0  0  0  0  0  0
  2 12  1  0  0  0  0
  3  1  1  0  0  0  0
  4  3  2  0  0  0  0
  5  8  2  0  0  0  0
  6  2  1  0  0  0  0
  7  6  1  0  0  0  0
  8  1  1  0  0  0  0
  9  2  2  0  0  0  0
 10  7  1  0  0  0  0
 11  7  1  0  0  0  0
 12 13  1  0  0  0  0
 13 14  1  0  0  0  0
 14  4  1  0  0  0  0
 15  5  1  0  0  0  0
 16  8  1  0  0  0  0
 17 18  1  0  0  0  0
 18 16  2  0  0  0  0
  5  4  1  0  0  0  0
 15 17  2  0  0  0  0
 11 10  1  0  0  0  0
M  END
>  <ID> (7849234)
7849234

>  <Supplier> (7849234)
ChemBridge

>  <clogP> (7849234)
2.173000000000000e+000

>  <RB> (7849234)
4

>  <tPSA> (7849234)
3.985000000000000e+001

>  <Hacc> (7849234)
0

>  <Hdon> (7849234)
3

>  <LogSw> (7849234)
-1.940000000000000e+000

>  <Group> (7849234)
3

$$$$
7761809
  -ISIS-  03310818272D

 29 33  0  0  0  0  0  0  0  0999 V2000
    0.7792   -9.4250    0.0000 S   0  0  3  0  0  0  0  0  0  0  0  0
    2.0292  -12.7042    0.0000 C   0  0  0  0  0  0  0  0  0  0  0  0
    1.2125  -12.7875    0.0000 N   0  0  0  0  0  0  0  0  0  0  0  0
    0.7792  -10.2500    0.0000 C   0  0  0  0  0  0  0  0  0  0  0  0
    1.4917  -11.4875    0.0000 C   0  0  0  0  0  0  0  0  0  0  0  0
    0.8792  -12.0417    0.0000 C   0  0  0  0  0  0  0  0  0  0  0  0
    1.4917  -10.6625    0.0000 C   0  0  0  0  0  0  0  0  0  0  0  0
    2.2042  -11.9000    0.0000 C   0  0  0  0  0  0  0  0  0  0  0  0
    0.7792   -8.6000    0.0000 N   0  0  0  0  0  0  0  0  0  0  0  0
    3.6375   -6.9417    0.0000 N   0  0  3  0  0  0  0  0  0  0  0  0
   -0.0458   -9.4250    0.0000 O   0  0  0  0  0  0  0  0  0  0  0  0
    1.6042   -9.4250    0.0000 O   0  0  0  0  0  0  0  0  0  0  0  0
    0.0667  -10.6625    0.0000 C   0  0  0  0  0  0  0  0  0  0  0  0
    2.9250   -7.3542    0.0000 C   0  0  0  0  0  0  0  0  0  0  0  0
    0.1000  -11.7917    0.0000 C   0  0  0  0  0  0  0  0  0  0  0  0
    2.5792  -13.3250    0.0000 O   0  0  0  0  0  0  0  0  0  0  0  0
    1.4917   -8.1875    0.0000 C   0  0  0  0  0  0  0  0  0  0  0  0
    2.9250   -8.1875    0.0000 C   0  0  0  0  0  0  0  0  0  0  0  0
    2.2042   -6.9417    0.0000 C   0  0  0  0  0  0  0  0  0  0  0  0
    2.2042  -10.2500    0.0000 C   0  0  0  0  0  0  0  0  0  0  0  0
    1.4917   -7.3542    0.0000 C   0  0  0  0  0  0  0  0  0  0  0  0
    2.2042   -8.6000    0.0000 C   0  0  0  0  0  0  0  0  0  0  0  0
    2.9250  -11.4875    0.0000 C   0  0  0  0  0  0  0  0  0  0  0  0
    4.3500   -7.3542    0.0000 C   0  0  0  0  0  0  0  0  0  0  0  0
    3.6292   -6.1167    0.0000 C   0  0  0  0  0  0  0  0  0  0  0  0
    2.9250  -10.6625    0.0000 C   0  0  0  0  0  0  0  0  0  0  0  0
    4.3500   -5.7125    0.0000 C   0  0  0  0  0  0  0  0  0  0  0  0
    5.0625   -6.9500    0.0000 C   0  0  0  0  0  0  0  0  0  0  0  0
    5.0667   -6.1250    0.0000 C   0  0  0  0  0  0  0  0  0  0  0  0
  2  8  1  0  0  0  0
  3  6  1  0  0  0  0
  4  1  1  0  0  0  0
  5  7  1  0  0  0  0
  6 15  1  0  0  0  0
  7  4  2  0  0  0  0
  8  5  1  0  0  0  0
  9  1  1  0  0  0  0
 10 14  1  0  0  0  0
 11  1  2  0  0  0  0
 12  1  2  0  0  0  0
 13  4  1  0  0  0  0
 14 18  2  0  0  0  0
 15 13  2  0  0  0  0
 16  2  2  0  0  0  0
 17  9  1  0  0  0  0
 18 22  1  0  0  0  0
 19 21  2  0  0  0  0
 20  7  1  0  0  0  0
 21 17  1  0  0  0  0
 22 17  2  0  0  0  0
 23 26  1  0  0  0  0
 24 10  1  0  0  0  0
 25 10  1  0  0  0  0
 26 20  2  0  0  0  0
 27 25  1  0  0  0  0
 28 24  1  0  0  0  0
 29 27  1  0  0  0  0
 19 14  1  0  0  0  0
  5  6  2  0  0  0  0
  3  2  1  0  0  0  0
  8 23  2  0  0  0  0
 28 29  1  0  0  0  0
M  END
>  <ID> (7761809)
7761809

>  <Supplier> (7761809)
ChemBridge

>  <clogP> (7761809)
4.199000000000000e+000

>  <RB> (7761809)
3

>  <tPSA> (7761809)
7.851000000000001e+001

>  <Hacc> (7761809)
3

>  <Hdon> (7761809)
2

>  <LogSw> (7761809)
-7.542000000000000e+000

>  <Group> (7761809)
3

>  <Core> (7761809)
516

$$$$
5377319
  -ISIS-  03310818222D

 24 26  0  0  0  0  0  0  0  0999 V2000
   -1.3625    0.6958    0.0000 C   0  0  0  0  0  0  0  0  0  0  0  0
   -1.8333    1.4958    0.0000 N   0  0  0  0  0  0  0  0  0  0  0  0
   -2.2833    0.6958    0.0000 N   0  0  0  0  0  0  0  0  0  0  0  0
   -1.8125    0.4333    0.0000 C   0  0  0  0  0  0  0  0  0  0  0  0
   -1.3625    1.2333    0.0000 C   0  0  0  0  0  0  0  0  0  0  0  0
   -2.3000    1.2125    0.0000 C   0  0  0  0  0  0  0  0  0  0  0  0
    0.3667    0.8625    0.0000 C   0  0  0  0  0  0  0  0  0  0  0  0
   -0.9125    0.4208    0.0000 C   0  0  0  0  0  0  0  0  0  0  0  0
    0.0500    0.4500    0.0000 O   0  0  0  0  0  0  0  0  0  0  0  0
   -0.4625    0.6708    0.0000 C   0  0  0  0  0  0  0  0  0  0  0  0
    0.8875    0.8125    0.0000 C   0  0  0  0  0  0  0  0  0  0  0  0
    1.1792    1.2333    0.0000 C   0  0  0  0  0  0  0  0  0  0  0  0
    0.0792    1.3333    0.0000 C   0  0  0  0  0  0  0  0  0  0  0  0
    0.9500    1.7000    0.0000 C   0  0  0  0  0  0  0  0  0  0  0  0
   -0.4208    1.2000    0.0000 C   0  0  0  0  0  0  0  0  0  0  0  0
   -2.7708    1.4625    0.0000 S   0  0  0  0  0  0  0  0  0  0  0  0
   -1.8125   -0.1042    0.0000 O   0  0  0  0  0  0  0  0  0  0  0  0
   -0.9208    1.5125    0.0000 O   0  0  0  0  0  0  0  0  0  0  0  0
    0.4167    1.7458    0.0000 O   0  0  0  0  0  0  0  0  0  0  0  0
    1.2667    2.0958    0.0000 O   0  0  0  0  0  0  0  0  0  0  0  0
    1.1042    0.3458    0.0000 C   0  0  0  0  0  0  0  0  0  0  0  0
    1.7000    1.1833    0.0000 C   0  0  0  0  0  0  0  0  0  0  0  0
    1.6292    0.3000    0.0000 C   0  0  0  0  0  0  0  0  0  0  0  0
    1.9292    0.7333    0.0000 C   0  0  0  0  0  0  0  0  0  0  0  0
  2  5  1  0  0  0  0
  3  4  1  0  0  0  0
  4  1  1  0  0  0  0
  5  1  1  0  0  0  0
  6  2  1  0  0  0  0
  7  9  1  0  0  0  0
  8  1  2  0  0  0  0
  9 10  1  0  0  0  0
 10  8  1  0  0  0  0
 11  7  1  0  0  0  0
 12 11  1  0  0  0  0
 13 15  1  0  0  0  0
 14 12  1  0  0  0  0
 15 10  2  0  0  0  0
 16  6  2  0  0  0  0
 17  4  2  0  0  0  0
 18  5  2  0  0  0  0
 19 14  2  0  0  0  0
 20 14  1  0  0  0  0
 21 11  2  0  0  0  0
 22 12  2  0  0  0  0
 23 21  1  0  0  0  0
 24 23  2  0  0  0  0
  3  6  1  0  0  0  0
 13  7  2  0  0  0  0
 22 24  1  0  0  0  0
M  END
>  <ID> (5377319)
5377319

>  <Supplier> (5377319)
ChemBridge

>  <clogP> (5377319)
2.230000000000000e+000

>  <RB> (5377319)
3

>  <tPSA> (5377319)
1.086400000000000e+002

>  <Hacc> (5377319)
5

>  <Hdon> (5377319)
3

>  <LogSw> (5377319)
-3.601000000000000e+000

>  <Group> (5377319)
3

>  <Core> (5377319)
007

$$$$
9075326
  -ISIS-  03310818292D

 27 29  0  0  0  0  0  0  0  0999 V2000
    2.3625    1.9333    0.0000 S   0  0  3  0  0  0  0  0  0  0  0  0
    3.0042    1.5583    0.0000 C   0  0  0  0  0  0  0  0  0  0  0  0
    3.6542    1.9333    0.0000 C   0  0  0  0  0  0  0  0  0  0  0  0
    4.3042    1.5583    0.0000 N   0  0  3  0  0  0  0  0  0  0  0  0
    5.6042    0.8083    0.0000 N   0  0  3  0  0  0  0  0  0  0  0  0
    1.8292    1.4083    0.0000 C   0  0  0  0  0  0  0  0  0  0  0  0
    2.7917    2.5458    0.0000 O   0  0  0  0  0  0  0  0  0  0  0  0
    1.7875    2.4208    0.0000 O   0  0  0  0  0  0  0  0  0  0  0  0
    6.2542    0.4333    0.0000 C   0  0  0  0  0  0  0  0  0  0  0  0
    4.9542    1.9333    0.0000 C   0  0  0  0  0  0  0  0  0  0  0  0
    4.3042    0.8083    0.0000 C   0  0  0  0  0  0  0  0  0  0  0  0
    4.9542    0.4333    0.0000 C   0  0  0  0  0  0  0  0  0  0  0  0
    5.6042    1.5583    0.0000 C   0  0  0  0  0  0  0  0  0  0  0  0
    3.6542    2.6833    0.0000 O   0  0  0  0  0  0  0  0  0  0  0  0
    1.1042    1.5958    0.0000 C   0  0  0  0  0  0  0  0  0  0  0  0
    2.0250    0.6833    0.0000 C   0  0  0  0  0  0  0  0  0  0  0  0
    6.2542   -0.3167    0.0000 C   0  0  0  0  0  0  0  0  0  0  0  0
    6.9042    0.8083    0.0000 C   0  0  0  0  0  0  0  0  0  0  0  0
    7.5542   -0.3167    0.0000 C   0  0  0  0  0  0  0  0  0  0  0  0
    7.5542    0.4333    0.0000 C   0  0  0  0  0  0  0  0  0  0  0  0
    6.9042   -0.6917    0.0000 C   0  0  0  0  0  0  0  0  0  0  0  0
    1.4917    0.1500    0.0000 C   0  0  0  0  0  0  0  0  0  0  0  0
    0.5750    1.0708    0.0000 C   0  0  0  0  0  0  0  0  0  0  0  0
    0.7667    0.3458    0.0000 C   0  0  0  0  0  0  0  0  0  0  0  0
    8.2042   -0.6917    0.0000 O   0  0  0  0  0  0  0  0  0  0  0  0
    0.2375   -0.1875    0.0000 C   0  0  0  0  0  0  0  0  0  0  0  0
    8.2042   -1.4417    0.0000 C   0  0  0  0  0  0  0  0  0  0  0  0
  2  1  1  0  0  0  0
  3  2  1  0  0  0  0
  4  3  1  0  0  0  0
  5 12  1  0  0  0  0
  6  1  1  0  0  0  0
  7  1  2  0  0  0  0
  8  1  2  0  0  0  0
  9  5  1  0  0  0  0
 10  4  1  0  0  0  0
 11  4  1  0  0  0  0
 12 11  1  0  0  0  0
 13 10  1  0  0  0  0
 14  3  2  0  0  0  0
 15  6  2  0  0  0  0
 16  6  1  0  0  0  0
 17  9  2  0  0  0  0
 18  9  1  0  0  0  0
 19 20  1  0  0  0  0
 20 18  2  0  0  0  0
 21 17  1  0  0  0  0
 22 16  2  0  0  0  0
 23 15  1  0  0  0  0
 24 22  1  0  0  0  0
 25 19  1  0  0  0  0
 26 24  1  0  0  0  0
 27 25  1  0  0  0  0
 24 23  2  0  0  0  0
  5 13  1  0  0  0  0
 19 21  2  0  0  0  0
M  END
>  <ID> (9075326)
9075326

>  <Supplier> (9075326)
ChemBridge

>  <clogP> (9075326)
1.773000000000000e+000

>  <RB> (9075326)
4

>  <tPSA> (9075326)
6.691999999999999e+001

>  <Hacc> (9075326)
4

>  <Hdon> (9075326)
0

>  <LogSw> (9075326)
-3.546000000000000e+000

>  <Group> (9075326)
3

>  <Core> (9075326)
158

$$$$
9075325
  -ISIS-  03310818292D

 22 24  0  0  0  0  0  0  0  0999 V2000
    1.5417   -0.0042    0.0000 N   0  0  0  0  0  0  0  0  0  0  0  0
    2.0292    1.1083    0.0000 C   0  0  0  0  0  0  0  0  0  0  0  0
    2.2875   -0.0792    0.0000 C   0  0  0  0  0  0  0  0  0  0  0  0
    2.5917    0.6000    0.0000 C   0  0  0  0  0  0  0  0  0  0  0  0
    5.0625   -0.2042    0.0000 C   0  0  0  0  0  0  0  0  0  0  0  0
    1.3792    0.7333    0.0000 C   0  0  0  0  0  0  0  0  0  0  0  0
    5.7917   -0.0417    0.0000 C   0  0  0  0  0  0  0  0  0  0  0  0
    2.0292    1.8583    0.0000 C   0  0  0  0  0  0  0  0  0  0  0  0
    4.8292   -0.9167    0.0000 O   0  0  0  0  0  0  0  0  0  0  0  0
    4.5625    0.3583    0.0000 N   0  0  0  0  0  0  0  0  0  0  0  0
    0.7292    1.1083    0.0000 C   0  0  0  0  0  0  0  0  0  0  0  0
    6.2917   -0.6042    0.0000 C   0  0  0  0  0  0  0  0  0  0  0  0
    6.0292    0.6708    0.0000 C   0  0  0  0  0  0  0  0  0  0  0  0
    1.3792    2.2333    0.0000 C   0  0  0  0  0  0  0  0  0  0  0  0
    7.2625    0.2708    0.0000 C   0  0  0  0  0  0  0  0  0  0  0  0
    0.7292    1.8583    0.0000 C   0  0  0  0  0  0  0  0  0  0  0  0
    6.7625    0.8208    0.0000 C   0  0  0  0  0  0  0  0  0  0  0  0
    7.0292   -0.4417    0.0000 C   0  0  0  0  0  0  0  0  0  0  0  0
    7.9917    0.4208    0.0000 F   0  0  0  0  0  0  0  0  0  0  0  0
    3.8250    0.2000    0.0000 C   0  0  0  0  0  0  0  0  0  0  0  0
    3.3250    0.7583    0.0000 C   0  0  0  0  0  0  0  0  0  0  0  0
    1.3792    2.9833    0.0000 C   0  0  0  0  0  0  0  0  0  0  0  0
  2  6  1  0  0  0  0
  3  1  1  0  0  0  0
  4  3  2  0  0  0  0
  5 10  1  0  0  0  0
  6  1  1  0  0  0  0
  7  5  1  0  0  0  0
  8  2  2  0  0  0  0
  9  5  2  0  0  0  0
 10 20  1  0  0  0  0
 11  6  2  0  0  0  0
 12  7  2  0  0  0  0
 13  7  1  0  0  0  0
 14 16  2  0  0  0  0
 15 17  1  0  0  0  0
 16 11  1  0  0  0  0
 17 13  2  0  0  0  0
 18 12  1  0  0  0  0
 19 15  1  0  0  0  0
 20 21  1  0  0  0  0
 21  4  1  0  0  0  0
 22 14  1  0  0  0  0
  2  4  1  0  0  0  0
 14  8  1  0  0  0  0
 15 18  2  0  0  0  0
M  END
>  <ID> (9075325)
9075325

>  <Supplier> (9075325)
ChemBridge

>  <clogP> (9075325)
3.792000000000000e+000

>  <RB> (9075325)
4

>  <tPSA> (9075325)
4.489000000000004e+001

>  <Hacc> (9075325)
1

>  <Hdon> (9075325)
2

>  <LogSw> (9075325)
-4.600000000000000e+000

>  <Group> (9075325)
2

$$$$
9146134
  -ISIS-  03310818292D

 29 30  0  0  0  0  0  0  0  0999 V2000
    4.4875    2.9958    0.0000 C   0  0  0  0  0  0  0  0  0  0  0  0
    4.9875    2.4333    0.0000 N   0  0  3  0  0  0  0  0  0  0  0  0
    4.8625    3.6458    0.0000 N   0  0  0  0  0  0  0  0  0  0  0  0
    5.5917    3.4833    0.0000 N   0  0  0  0  0  0  0  0  0  0  0  0
    5.6750    2.7375    0.0000 C   0  0  0  0  0  0  0  0  0  0  0  0
    3.7417    2.9125    0.0000 S   0  0  0  0  0  0  0  0  0  0  0  0
    2.5542    3.4458    0.0000 C   0  0  0  0  0  0  0  0  0  0  0  0
    2.1125    4.0417    0.0000 N   0  0  0  0  0  0  0  0  0  0  0  0
    8.2667    2.7375    0.0000 N   0  0  0  0  0  0  0  0  0  0  0  0
    7.6167    2.3625    0.0000 C   0  0  0  0  0  0  0  0  0  0  0  0
    3.3000    3.5208    0.0000 C   0  0  3  0  0  0  0  0  0  0  0  0
    8.9167    2.3625    0.0000 C   0  0  0  0  0  0  0  0  0  0  0  0
    2.2500    2.7583    0.0000 O   0  0  0  0  0  0  0  0  0  0  0  0
    6.3250    2.3625    0.0000 C   0  0  0  0  0  0  0  0  0  0  0  0
    1.3667    3.9708    0.0000 C   0  0  3  0  0  0  0  0  0  0  0  0
    8.9167    1.6125    0.0000 C   0  0  0  0  0  0  0  0  0  0  0  0
    7.6167    1.6125    0.0000 O   0  0  0  0  0  0  0  0  0  0  0  0
    4.8292    1.7000    0.0000 C   0  0  0  0  0  0  0  0  0  0  0  0
    6.9667    2.7375    0.0000 C   0  0  0  0  0  0  0  0  0  0  0  0
    8.2667    1.2375    0.0000 Cl  0  0  0  0  0  0  0  0  0  0  0  0
    9.5667    2.7375    0.0000 C   0  0  0  0  0  0  0  0  0  0  0  0
    3.6042    4.2000    0.0000 C   0  0  0  0  0  0  0  0  0  0  0  0
    1.1000    4.6667    0.0000 C   0  0  0  0  0  0  0  0  0  0  0  0
    0.6417    3.7708    0.0000 C   0  0  0  0  0  0  0  0  0  0  0  0
    1.5042    3.2333    0.0000 C   0  0  0  0  0  0  0  0  0  0  0  0
    9.5667    1.2375    0.0000 C   0  0  0  0  0  0  0  0  0  0  0  0
    5.3917    1.2000    0.0000 C   0  0  0  0  0  0  0  0  0  0  0  0
   10.2167    2.3625    0.0000 C   0  0  0  0  0  0  0  0  0  0  0  0
   10.2167    1.6125    0.0000 C   0  0  0  0  0  0  0  0  0  0  0  0
  2  1  1  0  0  0  0
  3  1  2  0  0  0  0
  4  3  1  0  0  0  0
  5  2  1  0  0  0  0
  6  1  1  0  0  0  0
  7 11  1  0  0  0  0
  8  7  1  0  0  0  0
  9 10  1  0  0  0  0
 10 19  1  0  0  0  0
 11  6  1  0  0  0  0
 12  9  1  0  0  0  0
 13  7  2  0  0  0  0
 14  5  1  0  0  0  0
 15  8  1  0  0  0  0
 16 12  1  0  0  0  0
 17 10  2  0  0  0  0
 18  2  1  0  0  0  0
 19 14  1  0  0  0  0
 20 16  1  0  0  0  0
 21 12  2  0  0  0  0
 22 11  1  0  0  0  0
 23 15  1  0  0  0  0
 24 15  1  0  0  0  0
 25 15  1  0  0  0  0
 26 16  2  0  0  0  0
 27 18  1  0  0  0  0
 28 21  1  0  0  0  0
 29 28  2  0  0  0  0
  5  4  2  0  0  0  0
 29 26  1  0  0  0  0
M  END
>  <ID> (9146134)
9146134

>  <Supplier> (9146134)
ChemBridge

>  <clogP> (9146134)
1.237000000000000e+000

>  <RB> (9146134)
8

>  <tPSA> (9146134)
8.891000000000000e+001

>  <Hacc> (9146134)
4

>  <Hdon> (9146134)
2

>  <LogSw> (9146134)
-3.449000000000000e+000

>  <Group> (9146134)
2

>  <Core> (9146134)
009

$$$$
7575393
  -ISIS-  03310818262D

 33 35  0  0  0  0  0  0  0  0999 V2000
    5.9417   -6.8792    0.0000 S   0  0  3  0  0  0  0  0  0  0  0  0
    5.9417   -6.0542    0.0000 N   0  0  3  0  0  0  0  0  0  0  0  0
    6.6542   -5.6417    0.0000 C   0  0  0  0  0  0  0  0  0  0  0  0
    7.4042   -6.0750    0.0000 C   0  0  0  0  0  0  0  0  0  0  0  0
    5.2292   -5.6417    0.0000 C   0  0  0  0  0  0  0  0  0  0  0  0
    5.2292   -7.2917    0.0000 C   0  0  0  0  0  0  0  0  0  0  0  0
    8.1417   -5.6417    0.0000 N   0  0  0  0  0  0  0  0  0  0  0  0
    8.8792   -6.0667    0.0000 C   0  0  0  0  0  0  0  0  0  0  0  0
    6.1542   -7.6792    0.0000 O   0  0  0  0  0  0  0  0  0  0  0  0
    6.6542   -7.2917    0.0000 O   0  0  0  0  0  0  0  0  0  0  0  0
    9.6125   -5.6292    0.0000 C   0  0  0  0  0  0  0  0  0  0  0  0
    5.2292   -4.8167    0.0000 C   0  0  0  0  0  0  0  0  0  0  0  0
   10.3542   -6.0625    0.0000 C   0  0  0  0  0  0  0  0  0  0  0  0
    7.4042   -6.9292    0.0000 O   0  0  0  0  0  0  0  0  0  0  0  0
    8.8792   -6.9167    0.0000 C   0  0  0  0  0  0  0  0  0  0  0  0
    5.2292   -8.1125    0.0000 C   0  0  0  0  0  0  0  0  0  0  0  0
    4.5167   -6.8750    0.0000 C   0  0  0  0  0  0  0  0  0  0  0  0
   10.3500   -6.9167    0.0000 C   0  0  0  0  0  0  0  0  0  0  0  0
    4.5167   -4.4042    0.0000 C   0  0  0  0  0  0  0  0  0  0  0  0
    3.8042   -8.1125    0.0000 C   0  0  0  0  0  0  0  0  0  0  0  0
    9.6125   -7.3417    0.0000 C   0  0  0  0  0  0  0  0  0  0  0  0
    9.6042   -4.7792    0.0000 O   0  0  0  0  0  0  0  0  0  0  0  0
    4.5167   -8.5250    0.0000 C   0  0  0  0  0  0  0  0  0  0  0  0
    3.8042   -7.2875    0.0000 C   0  0  0  0  0  0  0  0  0  0  0  0
    4.5167   -3.5792    0.0000 Cl  0  0  0  0  0  0  0  0  0  0  0  0
    4.5167   -6.0542    0.0000 C   0  0  0  0  0  0  0  0  0  0  0  0
   11.0917   -7.3417    0.0000 O   0  0  0  0  0  0  0  0  0  0  0  0
    3.0917   -8.5250    0.0000 O   0  0  0  0  0  0  0  0  0  0  0  0
    3.8042   -5.6417    0.0000 C   0  0  0  0  0  0  0  0  0  0  0  0
    3.8042   -4.8167    0.0000 C   0  0  0  0  0  0  0  0  0  0  0  0
   10.3417   -4.3500    0.0000 C   0  0  0  0  0  0  0  0  0  0  0  0
    3.0917   -9.3500    0.0000 C   0  0  0  0  0  0  0  0  0  0  0  0
   11.0917   -8.1917    0.0000 C   0  0  0  0  0  0  0  0  0  0  0  0
  2  1  1  0  0  0  0
  3  2  1  0  0  0  0
  4  3  1  0  0  0  0
  5  2  1  0  0  0  0
  6  1  1  0  0  0  0
  7  4  1  0  0  0  0
  8  7  1  0  0  0  0
  9  1  2  0  0  0  0
 10  1  2  0  0  0  0
 11  8  1  0  0  0  0
 12  5  2  0  0  0  0
 13 11  2  0  0  0  0
 14  4  2  0  0  0  0
 15  8  2  0  0  0  0
 16  6  1  0  0  0  0
 17  6  2  0  0  0  0
 18 21  2  0  0  0  0
 19 12  1  0  0  0  0
 20 24  2  0  0  0  0
 21 15  1  0  0  0  0
 22 11  1  0  0  0  0
 23 16  2  0  0  0  0
 24 17  1  0  0  0  0
 25 19  1  0  0  0  0
 26  5  1  0  0  0  0
 27 18  1  0  0  0  0
 28 20  1  0  0  0  0
 29 26  2  0  0  0  0
 30 29  1  0  0  0  0
 31 22  1  0  0  0  0
 32 28  1  0  0  0  0
 33 27  1  0  0  0  0
 20 23  1  0  0  0  0
 30 19  2  0  0  0  0
 13 18  1  0  0  0  0
M  END
>  <ID> (7575393)
7575393

>  <Supplier> (7575393)
ChemBridge

>  <clogP> (7575393)
4.315000000000000e+000

>  <RB> (7575393)
5

>  <tPSA> (7575393)
9.417000000000000e+001

>  <Hacc> (7575393)
6

>  <Hdon> (7575393)
1

>  <LogSw> (7575393)
-5.998000000000000e+000

>  <Group> (7575393)
1

>  <Core> (7575393)
084

$$$$
9155873
  -ISIS-  03310818292D

 23 24  0  0  0  0  0  0  0  0999 V2000
    3.4000    4.0417    0.0000 S   0  0  3  0  0  0  0  0  0  0  0  0
    4.0500    3.6708    0.0000 C   0  0  0  0  0  0  0  0  0  0  0  0
    4.0500    2.9208    0.0000 C   0  0  0  0  0  0  0  0  0  0  0  0
    2.8667    3.5208    0.0000 N   0  0  0  0  0  0  0  0  0  0  0  0
    4.7000    4.0417    0.0000 C   0  0  0  0  0  0  0  0  0  0  0  0
    4.7000    2.5458    0.0000 C   0  0  0  0  0  0  0  0  0  0  0  0
    5.3500    3.6708    0.0000 C   0  0  0  0  0  0  0  0  0  0  0  0
    5.3500    2.9208    0.0000 C   0  0  0  0  0  0  0  0  0  0  0  0
    3.8292    4.6542    0.0000 O   0  0  0  0  0  0  0  0  0  0  0  0
    2.8292    4.5250    0.0000 O   0  0  0  0  0  0  0  0  0  0  0  0
    0.3625    2.8458    0.0000 N   0  0  0  0  0  0  0  0  0  0  0  0
    1.6167    3.1833    0.0000 C   0  0  0  0  0  0  0  0  0  0  0  0
    2.1417    3.7125    0.0000 C   0  0  0  0  0  0  0  0  0  0  0  0
    4.7000    1.7958    0.0000 O   0  0  0  0  0  0  0  0  0  0  0  0
    0.8917    3.3750    0.0000 C   0  0  0  0  0  0  0  0  0  0  0  0
    4.7000    4.7917    0.0000 C   0  0  0  0  0  0  0  0  0  0  0  0
    6.0000    2.5458    0.0000 C   0  0  0  0  0  0  0  0  0  0  0  0
    0.5542    2.1208    0.0000 C   0  0  0  0  0  0  0  0  0  0  0  0
    1.8125    2.4583    0.0000 C   0  0  0  0  0  0  0  0  0  0  0  0
    4.0500    1.4208    0.0000 C   0  0  0  0  0  0  0  0  0  0  0  0
    4.0500    0.6708    0.0000 C   0  0  0  0  0  0  0  0  0  0  0  0
    1.2792    1.9250    0.0000 C   0  0  0  0  0  0  0  0  0  0  0  0
    3.4000    0.2958    0.0000 C   0  0  0  0  0  0  0  0  0  0  0  0
  2  1  1  0  0  0  0
  3  2  1  0  0  0  0
  4  1  1  0  0  0  0
  5  2  2  0  0  0  0
  6  3  2  0  0  0  0
  7  5  1  0  0  0  0
  8  7  2  0  0  0  0
  9  1  2  0  0  0  0
 10  1  2  0  0  0  0
 11 15  2  0  0  0  0
 12 13  1  0  0  0  0
 13  4  1  0  0  0  0
 14  6  1  0  0  0  0
 15 12  1  0  0  0  0
 16  5  1  0  0  0  0
 17  8  1  0  0  0  0
 18 22  2  0  0  0  0
 19 12  2  0  0  0  0
 20 14  1  0  0  0  0
 21 20  1  0  0  0  0
 22 19  1  0  0  0  0
 23 21  1  0  0  0  0
  8  6  1  0  0  0  0
 18 11  1  0  0  0  0
M  END
>  <ID> (9155873)
9155873

>  <Supplier> (9155873)
ChemBridge

>  <clogP> (9155873)
3.526000000000000e+000

>  <RB> (9155873)
4

>  <tPSA> (9155873)
6.829000000000001e+001

>  <Hacc> (9155873)
5

>  <Hdon> (9155873)
1

>  <LogSw> (9155873)
-3.350000000000000e+000

>  <Group> (9155873)
2

$$$$
6001901
  -ISIS-  03310818232D

 25 28  0  0  0  0  0  0  0  0999 V2000
   -2.6500    1.0958    0.0000 N   0  0  3  0  0  0  0  0  0  0  0  0
   -2.5500    0.3333    0.0000 C   0  0  0  0  0  0  0  0  0  0  0  0
   -3.9583    0.9500    0.0000 N   0  0  0  0  0  0  0  0  0  0  0  0
   -3.3333    1.3958    0.0000 C   0  0  0  0  0  0  0  0  0  0  0  0
   -3.1708   -0.1292    0.0000 C   0  0  0  0  0  0  0  0  0  0  0  0
   -2.0333    1.5708    0.0000 N   0  0  0  0  0  0  0  0  0  0  0  0
   -0.7125    1.7333    0.0000 C   0  0  0  0  0  0  0  0  0  0  0  0
   -3.8708    0.1958    0.0000 C   0  0  0  0  0  0  0  0  0  0  0  0
   -1.3125    1.2708    0.0000 C   0  0  0  0  0  0  0  0  0  0  0  0
   -0.0125    1.4333    0.0000 C   0  0  0  0  0  0  0  0  0  0  0  0
   -1.8333    0.0333    0.0000 O   0  0  0  0  0  0  0  0  0  0  0  0
   -0.8125    2.4708    0.0000 C   0  0  0  0  0  0  0  0  0  0  0  0
    0.5875    1.9125    0.0000 C   0  0  0  0  0  0  0  0  0  0  0  0
   -0.2125    2.9333    0.0000 C   0  0  0  0  0  0  0  0  0  0  0  0
    0.4875    2.6708    0.0000 C   0  0  0  0  0  0  0  0  0  0  0  0
   -3.0708   -0.8875    0.0000 C   0  0  0  0  0  0  0  0  0  0  0  0
   -3.4125    2.1708    0.0000 C   0  0  0  0  0  0  0  0  0  0  0  0
   -1.5333    2.7958    0.0000 O   0  0  0  0  0  0  0  0  0  0  0  0
   -4.4708   -0.2875    0.0000 C   0  0  0  0  0  0  0  0  0  0  0  0
    0.0875    0.6708    0.0000 C   0  0  0  0  0  0  0  0  0  0  0  0
    1.3042    1.6333    0.0000 C   0  0  0  0  0  0  0  0  0  0  0  0
   -3.6958   -1.3500    0.0000 C   0  0  0  0  0  0  0  0  0  0  0  0
   -4.3958   -1.0500    0.0000 C   0  0  0  0  0  0  0  0  0  0  0  0
    0.8042    0.3958    0.0000 C   0  0  0  0  0  0  0  0  0  0  0  0
    1.4292    0.8708    0.0000 C   0  0  0  0  0  0  0  0  0  0  0  0
  2  1  1  0  0  0  0
  3  4  2  0  0  0  0
  4  1  1  0  0  0  0
  5  2  1  0  0  0  0
  6  1  1  0  0  0  0
  7  9  1  0  0  0  0
  8  3  1  0  0  0  0
  9  6  2  0  0  0  0
 10  7  2  0  0  0  0
 11  2  2  0  0  0  0
 12  7  1  0  0  0  0
 13 10  1  0  0  0  0
 14 12  2  0  0  0  0
 15 14  1  0  0  0  0
 16  5  1  0  0  0  0
 17  4  1  0  0  0  0
 18 12  1  0  0  0  0
 19  8  1  0  0  0  0
 20 10  1  0  0  0  0
 21 13  1  0  0  0  0
 22 16  2  0  0  0  0
 23 19  2  0  0  0  0
 24 20  2  0  0  0  0
 25 24  1  0  0  0  0
  5  8  2  0  0  0  0
 22 23  1  0  0  0  0
 15 13  2  0  0  0  0
 21 25  2  0  0  0  0
M  END
>  <ID> (6001901)
6001901

>  <Supplier> (6001901)
ChemBridge

>  <clogP> (6001901)
4.440000000000000e+000

>  <RB> (6001901)
2

>  <tPSA> (6001901)
6.748000000000000e+001

>  <Hacc> (6001901)
4

>  <Hdon> (6001901)
1

>  <LogSw> (6001901)
-4.813999999999998e+000

>  <Group> (6001901)
2

>  <Core> (6001901)
061

$$$$
6001900
  -ISIS-  03310818232D

 31 33  0  0  0  0  0  0  0  0999 V2000
    5.5042   -4.5625    0.0000 S   0  0  3  0  0  0  0  0  0  0  0  0
    5.5125   -3.7375    0.0000 N   0  0  3  0  0  0  0  0  0  0  0  0
    6.2250   -3.3250    0.0000 C   0  0  0  0  0  0  0  0  0  0  0  0
    4.7917   -4.9667    0.0000 C   0  0  0  0  0  0  0  0  0  0  0  0
    6.9417   -3.7375    0.0000 C   0  0  0  0  0  0  0  0  0  0  0  0
    6.3292   -4.5542    0.0000 O   0  0  0  0  0  0  0  0  0  0  0  0
    6.0917   -5.1417    0.0000 O   0  0  0  0  0  0  0  0  0  0  0  0
    4.7917   -3.3167    0.0000 C   0  0  0  0  0  0  0  0  0  0  0  0
    7.6542   -3.3292    0.0000 N   0  0  0  0  0  0  0  0  0  0  0  0
    6.9375   -4.5625    0.0000 O   0  0  0  0  0  0  0  0  0  0  0  0
    4.8000   -5.8000    0.0000 C   0  0  0  0  0  0  0  0  0  0  0  0
    4.0792   -4.5542    0.0000 C   0  0  0  0  0  0  0  0  0  0  0  0
    4.7917   -2.4917    0.0000 C   0  0  0  0  0  0  0  0  0  0  0  0
    4.0792   -3.7292    0.0000 C   0  0  0  0  0  0  0  0  0  0  0  0
    3.3667   -5.7917    0.0000 C   0  0  0  0  0  0  0  0  0  0  0  0
    8.3625   -3.7417    0.0000 C   0  0  0  0  0  0  0  0  0  0  0  0
    3.3667   -2.4917    0.0000 C   0  0  0  0  0  0  0  0  0  0  0  0
    3.3667   -4.9667    0.0000 C   0  0  0  0  0  0  0  0  0  0  0  0
    4.0792   -6.2042    0.0000 C   0  0  0  0  0  0  0  0  0  0  0  0
    3.3667   -3.3167    0.0000 C   0  0  0  0  0  0  0  0  0  0  0  0
    4.0792   -2.0792    0.0000 C   0  0  0  0  0  0  0  0  0  0  0  0
    2.6500   -6.2000    0.0000 Cl  0  0  0  0  0  0  0  0  0  0  0  0
    9.0792   -3.3292    0.0000 C   0  0  0  0  0  0  0  0  0  0  0  0
    2.6542   -2.0875    0.0000 O   0  0  0  0  0  0  0  0  0  0  0  0
    2.6542   -1.2625    0.0000 C   0  0  0  0  0  0  0  0  0  0  0  0
    9.7875   -3.7500    0.0000 C   0  0  0  0  0  0  0  0  0  0  0  0
    9.0792   -2.5125    0.0000 C   0  0  0  0  0  0  0  0  0  0  0  0
    3.3667   -0.8417    0.0000 C   0  0  0  0  0  0  0  0  0  0  0  0
   10.5000   -3.3417    0.0000 C   0  0  0  0  0  0  0  0  0  0  0  0
    9.7917   -2.1042    0.0000 C   0  0  0  0  0  0  0  0  0  0  0  0
   10.5042   -2.5167    0.0000 C   0  0  0  0  0  0  0  0  0  0  0  0
  2  1  1  0  0  0  0
  3  2  1  0  0  0  0
  4  1  1  0  0  0  0
  5  3  1  0  0  0  0
  6  1  2  0  0  0  0
  7  1  2  0  0  0  0
  8  2  1  0  0  0  0
  9  5  1  0  0  0  0
 10  5  2  0  0  0  0
 11  4  1  0  0  0  0
 12  4  2  0  0  0  0
 13  8  1  0  0  0  0
 14  8  2  0  0  0  0
 15 18  2  0  0  0  0
 16  9  1  0  0  0  0
 17 20  2  0  0  0  0
 18 12  1  0  0  0  0
 19 11  2  0  0  0  0
 20 14  1  0  0  0  0
 21 13  2  0  0  0  0
 22 15  1  0  0  0  0
 23 16  1  0  0  0  0
 24 17  1  0  0  0  0
 25 24  1  0  0  0  0
 26 23  2  0  0  0  0
 27 23  1  0  0  0  0
 28 25  1  0  0  0  0
 29 26  1  0  0  0  0
 30 27  2  0  0  0  0
 31 30  1  0  0  0  0
 15 19  1  0  0  0  0
 17 21  1  0  0  0  0
 29 31  2  0  0  0  0
M  END
>  <ID> (6001900)
6001900

>  <Supplier> (6001900)
ChemBridge

>  <clogP> (6001900)
5.040000000000000e+000

>  <RB> (6001900)
6

>  <tPSA> (6001900)
7.570999999999999e+001

>  <Hacc> (6001900)
4

>  <Hdon> (6001900)
1

>  <LogSw> (6001900)
-6.849000000000000e+000

>  <Group> (6001900)
2

>  <Core> (6001900)
084

$$$$
5377312
  -ISIS-  03310818222D

 20 23  0  0  0  0  0  0  0  0999 V2000
   -1.2708   -0.0292    0.0000 N   0  0  3  0  0  0  0  0  0  0  0  0
   -2.3333    0.2708    0.0000 C   0  0  3  0  0  0  0  0  0  0  0  0
   -2.3333   -0.3875    0.0000 C   0  0  3  0  0  0  0  0  0  0  0  0
   -1.6500   -0.6000    0.0000 C   0  0  0  0  0  0  0  0  0  0  0  0
   -1.7000    0.5125    0.0000 C   0  0  0  0  0  0  0  0  0  0  0  0
   -3.0833    0.0708    0.0000 C   0  0  3  0  0  0  0  0  0  0  0  0
   -3.0958   -0.2500    0.0000 C   0  0  3  0  0  0  0  0  0  0  0  0
   -0.5708   -0.0292    0.0000 C   0  0  0  0  0  0  0  0  0  0  0  0
   -3.5125    0.5625    0.0000 O   0  0  0  0  0  0  0  0  0  0  0  0
   -0.2333    0.5708    0.0000 C   0  0  0  0  0  0  0  0  0  0  0  0
   -3.5958   -0.5542    0.0000 C   0  0  0  0  0  0  0  0  0  0  0  0
   -3.6125   -0.9375    0.0000 C   0  0  0  0  0  0  0  0  0  0  0  0
    0.4792    0.5833    0.0000 C   0  0  0  0  0  0  0  0  0  0  0  0
   -1.5500    1.1833    0.0000 O   0  0  0  0  0  0  0  0  0  0  0  0
   -1.4000   -1.2292    0.0000 O   0  0  0  0  0  0  0  0  0  0  0  0
   -0.2208   -0.6375    0.0000 C   0  0  0  0  0  0  0  0  0  0  0  0
    0.8375   -0.0292    0.0000 C   0  0  0  0  0  0  0  0  0  0  0  0
    0.4875   -0.6292    0.0000 C   0  0  0  0  0  0  0  0  0  0  0  0
    0.8167    1.1958    0.0000 Br  0  0  0  0  0  0  0  0  0  0  0  0
    1.5375   -0.0292    0.0000 C   0  0  0  0  0  0  0  0  0  0  0  0
  2  5  1  0  0  0  0
  3  4  1  0  0  0  0
  4  1  1  0  0  0  0
  5  1  1  0  0  0  0
  6  2  1  0  0  0  0
  7  3  1  0  0  0  0
  8  1  1  0  0  0  0
  9  6  1  0  0  0  0
 10  8  2  0  0  0  0
 11  6  1  0  0  0  0
 12  7  1  0  0  0  0
 13 10  1  0  0  0  0
 14  5  2  0  0  0  0
 15  4  2  0  0  0  0
 16  8  1  0  0  0  0
 17 18  1  0  0  0  0
 18 16  2  0  0  0  0
 19 13  1  0  0  0  0
 20 17  1  0  0  0  0
  3  2  1  0  0  0  0
 13 17  2  0  0  0  0
  7  9  1  0  0  0  0
 12 11  2  0  0  0  0
M  END
>  <ID> (5377312)
5377312

>  <Supplier> (5377312)
ChemBridge

>  <clogP> (5377312)
1.650000000000000e+000

>  <RB> (5377312)
1

>  <tPSA> (5377312)
4.661000000000000e+001

>  <Hacc> (5377312)
3

>  <Hdon> (5377312)
0

>  <LogSw> (5377312)
-3.046000000000000e+000

>  <Group> (5377312)
3

>  <Core> (5377312)
311

$$$$
5377315
  -ISIS-  03310818222D

 22 24  0  0  0  0  0  0  0  0999 V2000
    3.9500   -0.8167    0.0000 S   0  0  3  0  0  0  0  0  0  0  0  0
    3.4167   -0.5375    0.0000 C   0  0  0  0  0  0  0  0  0  0  0  0
    3.8542   -1.5667    0.0000 N   0  0  0  0  0  0  0  0  0  0  0  0
    3.0375   -0.8167    0.0000 C   0  0  0  0  0  0  0  0  0  0  0  0
    2.6042   -0.6292    0.0000 C   0  0  0  0  0  0  0  0  0  0  0  0
    4.0500    0.0500    0.0000 O   0  0  0  0  0  0  0  0  0  0  0  0
    4.8167   -0.5667    0.0000 O   0  0  0  0  0  0  0  0  0  0  0  0
    5.2500   -2.2042    0.0000 C   0  0  0  0  0  0  0  0  0  0  0  0
    4.8875   -1.9042    0.0000 C   0  0  0  0  0  0  0  0  0  0  0  0
    2.5542   -0.1667    0.0000 C   0  0  0  0  0  0  0  0  0  0  0  0
    4.4500   -2.0667    0.0000 C   0  0  0  0  0  0  0  0  0  0  0  0
    5.1542   -2.6667    0.0000 C   0  0  0  0  0  0  0  0  0  0  0  0
    2.2292   -0.9042    0.0000 O   0  0  0  0  0  0  0  0  0  0  0  0
    2.1292    0.0125    0.0000 O   0  0  0  0  0  0  0  0  0  0  0  0
    3.3667   -0.0667    0.0000 C   0  0  0  0  0  0  0  0  0  0  0  0
    2.9375    0.1000    0.0000 C   0  0  0  0  0  0  0  0  0  0  0  0
    4.7167   -2.8292    0.0000 C   0  0  0  0  0  0  0  0  0  0  0  0
    5.7667   -2.0542    0.0000 Cl  0  0  0  0  0  0  0  0  0  0  0  0
    4.3667   -2.5292    0.0000 C   0  0  0  0  0  0  0  0  0  0  0  0
    5.6667   -3.0667    0.0000 Cl  0  0  0  0  0  0  0  0  0  0  0  0
    1.8000   -0.7292    0.0000 C   0  0  0  0  0  0  0  0  0  0  0  0
    1.7500   -0.2542    0.0000 C   0  0  0  0  0  0  0  0  0  0  0  0
  2  1  1  0  0  0  0
  3  1  1  0  0  0  0
  4  2  2  0  0  0  0
  5  4  1  0  0  0  0
  6  1  2  0  0  0  0
  7  1  2  0  0  0  0
  8  9  1  0  0  0  0
  9 11  2  0  0  0  0
 10 16  1  0  0  0  0
 11  3  1  0  0  0  0
 12 17  1  0  0  0  0
 13  5  1  0  0  0  0
 14 10  1  0  0  0  0
 15  2  1  0  0  0  0
 16 15  2  0  0  0  0
 17 19  2  0  0  0  0
 18  8  1  0  0  0  0
 19 11  1  0  0  0  0
 20 12  1  0  0  0  0
 21 13  1  0  0  0  0
 22 14  1  0  0  0  0
 10  5  2  0  0  0  0
 12  8  2  0  0  0  0
 22 21  1  0  0  0  0
M  END
>  <ID> (5377315)
5377315

>  <Supplier> (5377315)
ChemBridge

>  <clogP> (5377315)
4.150000000000000e+000

>  <RB> (5377315)
2

>  <tPSA> (5377315)
6.463000000000000e+001

>  <Hacc> (5377315)
4

>  <Hdon> (5377315)
1

>  <LogSw> (5377315)
-5.370000000000000e+000

>  <Group> (5377315)
3

>  <Core> (5377315)
516

$$$$
9075329
  -ISIS-  03310818292D

 23 25  0  0  0  0  0  0  0  0999 V2000
    4.8125    1.8458    0.0000 C   0  0  0  0  0  0  0  0  0  0  0  0
    4.8917    1.1000    0.0000 N   0  0  0  0  0  0  0  0  0  0  0  0
    4.1667    2.2208    0.0000 C   0  0  0  0  0  0  0  0  0  0  0  0
    5.5000    2.1500    0.0000 O   0  0  0  0  0  0  0  0  0  0  0  0
    5.6250    0.9458    0.0000 C   0  0  0  0  0  0  0  0  0  0  0  0
    4.1667    2.9708    0.0000 C   0  0  0  0  0  0  0  0  0  0  0  0
    1.5667    2.2208    0.0000 C   0  0  0  0  0  0  0  0  0  0  0  0
    6.0000    1.5958    0.0000 C   0  0  0  0  0  0  0  0  0  0  0  0
    2.2167    1.8458    0.0000 N   0  0  0  0  0  0  0  0  0  0  0  0
    3.5167    3.3458    0.0000 C   0  0  0  0  0  0  0  0  0  0  0  0
    2.8667    2.2208    0.0000 C   0  0  0  0  0  0  0  0  0  0  0  0
    3.5167    1.8458    0.0000 C   0  0  0  0  0  0  0  0  0  0  0  0
    6.0000    0.2958    0.0000 N   0  0  0  0  0  0  0  0  0  0  0  0
    2.8667    2.9708    0.0000 C   0  0  0  0  0  0  0  0  0  0  0  0
    1.5667    2.9708    0.0000 O   0  0  0  0  0  0  0  0  0  0  0  0
    0.9167    1.8458    0.0000 C   0  0  3  0  0  0  0  0  0  0  0  0
    4.8125    3.3458    0.0000 O   0  0  0  0  0  0  0  0  0  0  0  0
    3.5167    4.0917    0.0000 C   0  0  0  0  0  0  0  0  0  0  0  0
    6.7500    1.5958    0.0000 C   0  0  0  0  0  0  0  0  0  0  0  0
    6.7500    0.2958    0.0000 C   0  0  0  0  0  0  0  0  0  0  0  0
    0.2667    2.2208    0.0000 C   0  0  0  0  0  0  0  0  0  0  0  0
    0.9167    1.0958    0.0000 C   0  0  0  0  0  0  0  0  0  0  0  0
    7.1250    0.9458    0.0000 C   0  0  0  0  0  0  0  0  0  0  0  0
  2  1  2  0  0  0  0
  3  1  1  0  0  0  0
  4  1  1  0  0  0  0
  5  2  1  0  0  0  0
  6  3  1  0  0  0  0
  7  9  1  0  0  0  0
  8  4  1  0  0  0  0
  9 11  1  0  0  0  0
 10  6  2  0  0  0  0
 11 12  1  0  0  0  0
 12  3  2  0  0  0  0
 13  5  1  0  0  0  0
 14 11  2  0  0  0  0
 15  7  2  0  0  0  0
 16  7  1  0  0  0  0
 17  6  1  0  0  0  0
 18 10  1  0  0  0  0
 19  8  1  0  0  0  0
 20 13  2  0  0  0  0
 21 16  1  0  0  0  0
 22 16  1  0  0  0  0
 23 19  2  0  0  0  0
  8  5  2  0  0  0  0
 23 20  1  0  0  0  0
 10 14  1  0  0  0  0
M  END
>  <ID> (9075329)
9075329

>  <Supplier> (9075329)
ChemBridge

>  <clogP> (9075329)
1.916000000000000e+000

>  <RB> (9075329)
2

>  <tPSA> (9075329)
8.825000000000004e+001

>  <Hacc> (9075329)
5

>  <Hdon> (9075329)
2

>  <LogSw> (9075329)
-3.107000000000000e+000

>  <Group> (9075329)
2

>  <Core> (9075329)
069

$$$$
9033896
  -ISIS-  03310818282D

 20 21  0  0  0  0  0  0  0  0999 V2000
    3.5917    2.4625    0.0000 C   0  0  0  0  0  0  0  0  0  0  0  0
    4.2792    2.1583    0.0000 O   0  0  0  0  0  0  0  0  0  0  0  0
    2.9417    2.0875    0.0000 C   0  0  0  0  0  0  0  0  0  0  0  0
    3.6750    3.2083    0.0000 C   0  0  0  0  0  0  0  0  0  0  0  0
    2.3000    2.4625    0.0000 C   0  0  0  0  0  0  0  0  0  0  0  0
    4.7792    2.7208    0.0000 C   0  0  0  0  0  0  0  0  0  0  0  0
    4.4042    3.3708    0.0000 C   0  0  0  0  0  0  0  0  0  0  0  0
    1.6500    2.0875    0.0000 C   0  0  0  0  0  0  0  0  0  0  0  0
    5.9667    3.2458    0.0000 N   0  0  0  0  0  0  0  0  0  0  0  0
    5.5292    2.6458    0.0000 C   0  0  0  0  0  0  0  0  0  0  0  0
    1.0000    2.4625    0.0000 Cl  0  0  0  0  0  0  0  0  0  0  0  0
    2.9417    1.3375    0.0000 C   0  0  0  0  0  0  0  0  0  0  0  0
    2.3000    3.2125    0.0000 C   0  0  0  0  0  0  0  0  0  0  0  0
    7.9042    3.6958    0.0000 O   0  0  0  0  0  0  0  0  0  0  0  0
    2.3000    0.9625    0.0000 C   0  0  0  0  0  0  0  0  0  0  0  0
    6.7167    3.1708    0.0000 C   0  0  3  0  0  0  0  0  0  0  0  0
    1.6500    1.3375    0.0000 C   0  0  0  0  0  0  0  0  0  0  0  0
    7.1542    3.7708    0.0000 C   0  0  0  0  0  0  0  0  0  0  0  0
    7.0167    2.4833    0.0000 C   0  0  0  0  0  0  0  0  0  0  0  0
    7.7667    2.4083    0.0000 C   0  0  0  0  0  0  0  0  0  0  0  0
  2  1  1  0  0  0  0
  3  1  1  0  0  0  0
  4  1  2  0  0  0  0
  5  3  2  0  0  0  0
  6  2  1  0  0  0  0
  7  4  1  0  0  0  0
  8  5  1  0  0  0  0
  9 10  1  0  0  0  0
 10  6  1  0  0  0  0
 11  8  1  0  0  0  0
 12  3  1  0  0  0  0
 13  5  1  0  0  0  0
 14 18  1  0  0  0  0
 15 12  2  0  0  0  0
 16  9  1  0  0  0  0
 17 15  1  0  0  0  0
 18 16  1  0  0  0  0
 19 16  1  0  0  0  0
 20 19  1  0  0  0  0
  7  6  2  0  0  0  0
  8 17  2  0  0  0  0
M  END
>  <ID> (9033896)
9033896

>  <Supplier> (9033896)
ChemBridge

>  <clogP> (9033896)
3.942000000000000e+000

>  <RB> (9033896)
5

>  <tPSA> (9033896)
4.540000000000000e+001

>  <Hacc> (9033896)
3

>  <Hdon> (9033896)
2

>  <LogSw> (9033896)
-3.701000000000000e+000

>  <Group> (9033896)
2

$$$$
7965583
  -ISIS-  03310818282D

 29 31  0  0  0  0  0  0  0  0999 V2000
    3.6375    3.3708    0.0000 C   0  0  0  0  0  0  0  0  0  0  0  0
    4.2875    2.9958    0.0000 C   0  0  0  0  0  0  0  0  0  0  0  0
    6.2167    3.1458    0.0000 C   0  0  0  0  0  0  0  0  0  0  0  0
    6.8375    2.7333    0.0000 O   0  0  0  0  0  0  0  0  0  0  0  0
    5.5125    2.8958    0.0000 C   0  0  0  0  0  0  0  0  0  0  0  0
    7.4292    3.1875    0.0000 C   0  0  0  0  0  0  0  0  0  0  0  0
    4.9375    3.3708    0.0000 N   0  0  0  0  0  0  0  0  0  0  0  0
    3.6375    4.1167    0.0000 C   0  0  0  0  0  0  0  0  0  0  0  0
    6.4250    3.8708    0.0000 C   0  0  0  0  0  0  0  0  0  0  0  0
    7.1667    3.8958    0.0000 C   0  0  0  0  0  0  0  0  0  0  0  0
    3.6375    1.1208    0.0000 C   0  0  0  0  0  0  0  0  0  0  0  0
    3.6375    1.8708    0.0000 C   0  0  0  0  0  0  0  0  0  0  0  0
    4.2875    2.2458    0.0000 C   0  0  0  0  0  0  0  0  0  0  0  0
    2.9875    2.9958    0.0000 C   0  0  0  0  0  0  0  0  0  0  0  0
    8.1500    2.9833    0.0000 C   0  0  0  0  0  0  0  0  0  0  0  0
    5.3792    2.1500    0.0000 O   0  0  0  0  0  0  0  0  0  0  0  0
    2.9875    2.2458    0.0000 C   0  0  0  0  0  0  0  0  0  0  0  0
    4.0917    4.3792    0.0000 O   0  0  0  0  0  0  0  0  0  0  0  0
    4.2875    0.7458    0.0000 O   0  0  0  0  0  0  0  0  0  0  0  0
    8.3292    2.2583    0.0000 C   0  0  0  0  0  0  0  0  0  0  0  0
    8.6875    3.5083    0.0000 C   0  0  0  0  0  0  0  0  0  0  0  0
    2.9875    4.4917    0.0000 O   0  0  0  0  0  0  0  0  0  0  0  0
    9.5917    2.5708    0.0000 C   0  0  0  0  0  0  0  0  0  0  0  0
    2.9875    0.7458    0.0000 O   0  0  0  0  0  0  0  0  0  0  0  0
    9.0542    2.0500    0.0000 C   0  0  0  0  0  0  0  0  0  0  0  0
    9.4042    3.2958    0.0000 C   0  0  0  0  0  0  0  0  0  0  0  0
   10.3125    2.3625    0.0000 F   0  0  0  0  0  0  0  0  0  0  0  0
    2.9875    5.2417    0.0000 C   0  0  0  0  0  0  0  0  0  0  0  0
    2.9875   -0.0042    0.0000 C   0  0  0  0  0  0  0  0  0  0  0  0
  2  1  1  0  0  0  0
  3  5  1  0  0  0  0
  4  3  1  0  0  0  0
  5  7  1  0  0  0  0
  6  4  1  0  0  0  0
  7  2  1  0  0  0  0
  8  1  1  0  0  0  0
  9  3  2  0  0  0  0
 10  9  1  0  0  0  0
 11 12  1  0  0  0  0
 12 17  2  0  0  0  0
 13  2  2  0  0  0  0
 14  1  2  0  0  0  0
 15  6  1  0  0  0  0
 16  5  2  0  0  0  0
 17 14  1  0  0  0  0
 18  8  2  0  0  0  0
 19 11  2  0  0  0  0
 20 15  2  0  0  0  0
 21 15  1  0  0  0  0
 22  8  1  0  0  0  0
 23 26  1  0  0  0  0
 24 11  1  0  0  0  0
 25 20  1  0  0  0  0
 26 21  2  0  0  0  0
 27 23  1  0  0  0  0
 28 22  1  0  0  0  0
 29 24  1  0  0  0  0
 12 13  1  0  0  0  0
 10  6  2  0  0  0  0
 25 23  2  0  0  0  0
M  END
>  <ID> (7965583)
7965583

>  <Supplier> (7965583)
ChemBridge

>  <clogP> (7965583)
4.643000000000000e+000

>  <RB> (7965583)
5

>  <tPSA> (7965583)
9.484000000000000e+001

>  <Hacc> (7965583)
6

>  <Hdon> (7965583)
1

>  <LogSw> (7965583)
-6.061999999999999e+000

>  <Group> (7965583)
1

>  <Core> (7965583)
466

$$$$
9033895
  -ISIS-  03310818282D

 21 23  0  0  0  0  0  0  0  0999 V2000
    3.5542    1.2458    0.0000 C   0  0  0  0  0  0  0  0  0  0  0  0
    3.9292    1.8958    0.0000 N   0  0  0  0  0  0  0  0  0  0  0  0
    2.8042    1.2458    0.0000 C   0  0  0  0  0  0  0  0  0  0  0  0
    4.6792    1.8958    0.0000 C   0  0  0  0  0  0  0  0  0  0  0  0
    6.9292    1.8958    0.0000 N   0  0  0  0  0  0  0  0  0  0  0  0
    5.8042    2.5458    0.0000 C   0  0  0  0  0  0  0  0  0  0  0  0
    3.9292    0.5958    0.0000 O   0  0  0  0  0  0  0  0  0  0  0  0
    6.1792    1.8958    0.0000 C   0  0  0  0  0  0  0  0  0  0  0  0
    5.0542    2.5458    0.0000 C   0  0  0  0  0  0  0  0  0  0  0  0
    2.4292    1.8958    0.0000 C   0  0  0  0  0  0  0  0  0  0  0  0
    2.4292    0.5958    0.0000 C   0  0  0  0  0  0  0  0  0  0  0  0
    5.8042    1.2458    0.0000 C   0  0  0  0  0  0  0  0  0  0  0  0
    5.0542    1.2458    0.0000 C   0  0  0  0  0  0  0  0  0  0  0  0
    1.3042    1.2458    0.0000 C   0  0  0  0  0  0  0  0  0  0  0  0
    1.6792    0.5958    0.0000 C   0  0  0  0  0  0  0  0  0  0  0  0
    1.6792    1.8958    0.0000 C   0  0  0  0  0  0  0  0  0  0  0  0
    0.5542    1.2458    0.0000 O   0  0  0  0  0  0  0  0  0  0  0  0
    7.3042    2.5458    0.0000 C   0  0  0  0  0  0  0  0  0  0  0  0
    6.1792    3.1958    0.0000 C   0  0  0  0  0  0  0  0  0  0  0  0
    0.1792    1.8958    0.0000 C   0  0  0  0  0  0  0  0  0  0  0  0
    6.9292    3.1958    0.0000 C   0  0  0  0  0  0  0  0  0  0  0  0
  2  1  1  0  0  0  0
  3  1  1  0  0  0  0
  4  2  1  0  0  0  0
  5  8  1  0  0  0  0
  6  9  2  0  0  0  0
  7  1  2  0  0  0  0
  8 12  2  0  0  0  0
  9  4  1  0  0  0  0
 10  3  2  0  0  0  0
 11  3  1  0  0  0  0
 12 13  1  0  0  0  0
 13  4  2  0  0  0  0
 14 15  1  0  0  0  0
 15 11  2  0  0  0  0
 16 10  1  0  0  0  0
 17 14  1  0  0  0  0
 18  5  2  0  0  0  0
 19  6  1  0  0  0  0
 20 17  1  0  0  0  0
 21 19  2  0  0  0  0
 16 14  2  0  0  0  0
  6  8  1  0  0  0  0
 18 21  1  0  0  0  0
M  END
>  <ID> (9033895)
9033895

>  <Supplier> (9033895)
ChemBridge

>  <clogP> (9033895)
3.280000000000000e+000

>  <RB> (9033895)
2

>  <tPSA> (9033895)
5.121999999999999e+001

>  <Hacc> (9033895)
3

>  <Hdon> (9033895)
1

>  <LogSw> (9033895)
-4.031000000000002e+000

>  <Group> (9033895)
3

$$$$
7965582
  -ISIS-  03310818282D

 32 34  0  0  0  0  0  0  0  0999 V2000
    3.6417    1.8583    0.0000 C   0  0  0  0  0  0  0  0  0  0  0  0
    1.6917    2.2333    0.0000 C   0  0  0  0  0  0  0  0  0  0  0  0
    2.9917    2.2333    0.0000 N   0  0  0  0  0  0  0  0  0  0  0  0
    4.2917    2.2333    0.0000 C   0  0  0  0  0  0  0  0  0  0  0  0
    2.3417    1.8583    0.0000 C   0  0  0  0  0  0  0  0  0  0  0  0
    4.9417    1.8583    0.0000 C   0  0  0  0  0  0  0  0  0  0  0  0
    1.6917    2.9833    0.0000 C   0  0  0  0  0  0  0  0  0  0  0  0
    5.5917    2.2333    0.0000 C   0  0  0  0  0  0  0  0  0  0  0  0
    6.2417    1.8583    0.0000 N   0  0  0  0  0  0  0  0  0  0  0  0
    6.8917    2.2333    0.0000 C   0  0  0  0  0  0  0  0  0  0  0  0
    3.6417    1.1083    0.0000 O   0  0  0  0  0  0  0  0  0  0  0  0
    2.3417    3.3583    0.0000 O   0  0  0  0  0  0  0  0  0  0  0  0
    6.8917    2.9833    0.0000 O   0  0  0  0  0  0  0  0  0  0  0  0
    1.0417    3.3583    0.0000 O   0  0  0  0  0  0  0  0  0  0  0  0
    1.0417    1.8583    0.0000 C   0  0  0  0  0  0  0  0  0  0  0  0
    4.2917    2.9833    0.0000 C   0  0  0  0  0  0  0  0  0  0  0  0
    5.5917    2.9833    0.0000 C   0  0  0  0  0  0  0  0  0  0  0  0
    4.9417    1.1083    0.0000 C   0  0  0  0  0  0  0  0  0  0  0  0
    9.4875    2.2333    0.0000 C   0  0  0  0  0  0  0  0  0  0  0  0
    2.3417    1.1083    0.0000 C   0  0  0  0  0  0  0  0  0  0  0  0
    7.5417    1.8583    0.0000 C   0  0  0  0  0  0  0  0  0  0  0  0
    8.1875    2.2333    0.0000 C   0  0  0  0  0  0  0  0  0  0  0  0
    4.9417    3.3583    0.0000 C   0  0  0  0  0  0  0  0  0  0  0  0
    8.8375    1.8583    0.0000 C   0  0  0  0  0  0  0  0  0  0  0  0
    1.0417    4.1042    0.0000 C   0  0  0  0  0  0  0  0  0  0  0  0
   10.1375    1.8583    0.0000 C   0  0  0  0  0  0  0  0  0  0  0  0
    9.4875    2.9833    0.0000 C   0  0  0  0  0  0  0  0  0  0  0  0
    1.0417    1.1083    0.0000 C   0  0  0  0  0  0  0  0  0  0  0  0
    1.6917    0.7333    0.0000 C   0  0  0  0  0  0  0  0  0  0  0  0
   10.1375    3.3583    0.0000 C   0  0  0  0  0  0  0  0  0  0  0  0
   10.7875    2.2333    0.0000 C   0  0  0  0  0  0  0  0  0  0  0  0
   10.7875    2.9833    0.0000 C   0  0  0  0  0  0  0  0  0  0  0  0
  2  5  2  0  0  0  0
  3  1  1  0  0  0  0
  4  1  1  0  0  0  0
  5  3  1  0  0  0  0
  6  4  2  0  0  0  0
  7  2  1  0  0  0  0
  8  6  1  0  0  0  0
  9  8  1  0  0  0  0
 10  9  1  0  0  0  0
 11  1  2  0  0  0  0
 12  7  2  0  0  0  0
 13 10  2  0  0  0  0
 14  7  1  0  0  0  0
 15  2  1  0  0  0  0
 16  4  1  0  0  0  0
 17 23  1  0  0  0  0
 18  6  1  0  0  0  0
 19 24  1  0  0  0  0
 20  5  1  0  0  0  0
 21 10  1  0  0  0  0
 22 21  1  0  0  0  0
 23 16  2  0  0  0  0
 24 22  1  0  0  0  0
 25 14  1  0  0  0  0
 26 19  2  0  0  0  0
 27 19  1  0  0  0  0
 28 29  1  0  0  0  0
 29 20  2  0  0  0  0
 30 27  2  0  0  0  0
 31 26  1  0  0  0  0
 32 30  1  0  0  0  0
 17  8  2  0  0  0  0
 28 15  2  0  0  0  0
 32 31  2  0  0  0  0
M  END
>  <ID> (7965582)
7965582

>  <Supplier> (7965582)
ChemBridge

>  <clogP> (7965582)
4.387000000000000e+000

>  <RB> (7965582)
8

>  <tPSA> (7965582)
8.450000000000004e+001

>  <Hacc> (7965582)
4

>  <Hdon> (7965582)
2

>  <LogSw> (7965582)
-6.085000000000000e+000

>  <Group> (7965582)
1

>  <Core> (7965582)
146

$$$$
7724393
  -ISIS-  03310818262D

 22 24  0  0  0  0  0  0  0  0999 V2000
    4.7125   -3.2500    0.0000 C   0  0  3  0  0  0  0  0  0  0  0  0
    5.4292   -2.8375    0.0000 C   0  0  0  0  0  0  0  0  0  0  0  0
    4.7125   -4.0667    0.0000 C   0  0  0  0  0  0  0  0  0  0  0  0
    4.7042   -4.9000    0.0000 N   0  0  0  0  0  0  0  0  0  0  0  0
    8.2750   -4.4917    0.0000 C   0  0  0  0  0  0  0  0  0  0  0  0
    6.1417   -3.2542    0.0000 N   0  0  0  0  0  0  0  0  0  0  0  0
    8.2750   -5.3167    0.0000 C   0  0  0  0  0  0  0  0  0  0  0  0
    9.0625   -4.2292    0.0000 O   0  0  0  0  0  0  0  0  0  0  0  0
    9.0625   -5.5667    0.0000 O   0  0  0  0  0  0  0  0  0  0  0  0
    9.5417   -4.9000    0.0000 C   0  0  0  0  0  0  0  0  0  0  0  0
    4.0042   -2.8375    0.0000 C   0  0  0  0  0  0  0  0  0  0  0  0
    7.5625   -4.0792    0.0000 C   0  0  0  0  0  0  0  0  0  0  0  0
    5.4292   -2.0125    0.0000 O   0  0  0  0  0  0  0  0  0  0  0  0
    7.5542   -5.7292    0.0000 C   0  0  0  0  0  0  0  0  0  0  0  0
    6.8542   -4.4917    0.0000 C   0  0  0  0  0  0  0  0  0  0  0  0
    6.1417   -4.0792    0.0000 C   0  0  0  0  0  0  0  0  0  0  0  0
    6.8417   -5.3167    0.0000 C   0  0  0  0  0  0  0  0  0  0  0  0
    4.0042   -2.0042    0.0000 C   0  0  0  0  0  0  0  0  0  0  0  0
    3.2917   -3.2417    0.0000 C   0  0  0  0  0  0  0  0  0  0  0  0
    2.5792   -2.8375    0.0000 C   0  0  0  0  0  0  0  0  0  0  0  0
    3.2917   -1.5917    0.0000 C   0  0  0  0  0  0  0  0  0  0  0  0
    2.5750   -2.0042    0.0000 C   0  0  0  0  0  0  0  0  0  0  0  0
  2  1  1  0  0  0  0
  3  1  1  0  0  0  0
  4  3  3  0  0  0  0
  5 12  2  0  0  0  0
  6  2  1  0  0  0  0
  7 14  2  0  0  0  0
  8  5  1  0  0  0  0
  9  7  1  0  0  0  0
 10  8  1  0  0  0  0
 11  1  1  0  0  0  0
 12 15  1  0  0  0  0
 13  2  2  0  0  0  0
 14 17  1  0  0  0  0
 15 16  1  0  0  0  0
 16  6  1  0  0  0  0
 17 15  2  0  0  0  0
 18 11  2  0  0  0  0
 19 11  1  0  0  0  0
 20 19  2  0  0  0  0
 21 18  1  0  0  0  0
 22 20  1  0  0  0  0
 22 21  2  0  0  0  0
  7  5  1  0  0  0  0
 10  9  1  0  0  0  0
M  END
>  <ID> (7724393)
7724393

>  <Supplier> (7724393)
ChemBridge

>  <clogP> (7724393)
1.774000000000000e+000

>  <RB> (7724393)
4

>  <tPSA> (7724393)
7.134999999999997e+001

>  <Hacc> (7724393)
4

>  <Hdon> (7724393)
1

>  <LogSw> (7724393)
-4.139000000000000e+000

>  <Group> (7724393)
2

$$$$
5346076
  -ISIS-  03310818222D

 18 20  0  0  0  0  0  0  0  0999 V2000
    1.6542    1.0708    0.0000 C   0  0  3  0  0  0  0  0  0  0  0  0
    2.7292    1.2625    0.0000 C   0  0  0  0  0  0  0  0  0  0  0  0
   -0.5125    1.1708    0.0000 C   0  0  3  0  0  0  0  0  0  0  0  0
    0.5375    0.7000    0.0000 C   0  0  0  0  0  0  0  0  0  0  0  0
    1.6542    2.0333    0.0000 C   0  0  0  0  0  0  0  0  0  0  0  0
    1.1875    0.1958    0.0000 C   0  0  0  0  0  0  0  0  0  0  0  0
    0.5875    2.4625    0.0000 C   0  0  3  0  0  0  0  0  0  0  0  0
    0.0500    0.6458    0.0000 C   0  0  3  0  0  0  0  0  0  0  0  0
    3.4000    0.4833    0.0000 N   0  0  0  0  0  0  0  0  0  0  0  0
    3.2292    2.1125    0.0000 C   0  0  0  0  0  0  0  0  0  0  0  0
    4.2500    2.6833    0.0000 N   0  0  0  0  0  0  0  0  0  0  0  0
   -1.1625    0.2333    0.0000 C   0  0  0  0  0  0  0  0  0  0  0  0
   -0.5125    2.0708    0.0000 C   0  0  0  0  0  0  0  0  0  0  0  0
    0.0500    1.7708    0.0000 C   0  0  0  0  0  0  0  0  0  0  0  0
    4.5542    0.6833    0.0000 O   0  0  0  0  0  0  0  0  0  0  0  0
    4.2500    3.7208    0.0000 O   0  0  0  0  0  0  0  0  0  0  0  0
   -1.1958    2.0333    0.0000 C   0  0  0  0  0  0  0  0  0  0  0  0
   -0.7833    3.0500    0.0000 C   0  0  0  0  0  0  0  0  0  0  0  0
  2  1  1  0  0  0  0
  3  4  1  0  0  0  0
  4  1  1  0  0  0  0
  5  1  1  0  0  0  0
  6  1  1  0  0  0  0
  7  5  1  0  0  0  0
  8  6  1  0  0  0  0
  9  2  2  0  0  0  0
 10  2  1  0  0  0  0
 11 10  2  0  0  0  0
 12  8  1  0  0  0  0
 13  7  1  0  0  0  0
 14  8  1  0  0  0  0
 15  9  1  0  0  0  0
 16 11  1  0  0  0  0
 17  3  1  0  0  0  0
 18 17  1  0  0  0  0
 14  7  1  0  0  0  0
  3 12  1  0  0  0  0
  3 13  1  0  0  0  0
M  END
>  <ID> (5346076)
5346076

>  <Supplier> (5346076)
ChemBridge

>  <clogP> (5346076)
4.580000000000000e+000

>  <RB> (5346076)
2

>  <tPSA> (5346076)
6.518000000000001e+001

>  <Hacc> (5346076)
4

>  <Hdon> (5346076)
0

>  <LogSw> (5346076)
-4.938000000000002e+000

>  <Group> (5346076)
3

$$$$
6299396
  -ISIS-  03310818232D

 20 21  0  0  0  0  0  0  0  0999 V2000
    7.1917   -3.7292    0.0000 N   0  0  3  0  0  0  0  0  0  0  0  0
    6.6917   -4.2917    0.0000 C   0  0  0  0  0  0  0  0  0  0  0  0
    6.8167   -3.0792    0.0000 N   0  0  0  0  0  0  0  0  0  0  0  0
    6.0042   -3.9792    0.0000 C   0  0  0  0  0  0  0  0  0  0  0  0
    6.0875   -3.2375    0.0000 C   0  0  0  0  0  0  0  0  0  0  0  0
    4.0542   -2.8542    0.0000 C   0  0  0  0  0  0  0  0  0  0  0  0
    4.7042   -3.9792    0.0000 N   0  0  0  0  0  0  0  0  0  0  0  0
    5.3542   -4.3542    0.0000 C   0  0  0  0  0  0  0  0  0  0  0  0
    7.9417   -3.8125    0.0000 C   0  0  0  0  0  0  0  0  0  0  0  0
    4.7042   -3.2292    0.0000 N   0  0  0  0  0  0  0  0  0  0  0  0
    4.0542   -2.1042    0.0000 O   0  0  0  0  0  0  0  0  0  0  0  0
    6.8417   -5.0250    0.0000 O   0  0  0  0  0  0  0  0  0  0  0  0
    3.4042   -3.2292    0.0000 O   0  0  0  0  0  0  0  0  0  0  0  0
    5.5292   -2.7375    0.0000 C   0  0  0  0  0  0  0  0  0  0  0  0
    8.3792   -3.2042    0.0000 C   0  0  0  0  0  0  0  0  0  0  0  0
    8.2417   -4.4917    0.0000 C   0  0  0  0  0  0  0  0  0  0  0  0
    2.7542   -2.8542    0.0000 C   0  0  0  0  0  0  0  0  0  0  0  0
    8.9917   -4.5750    0.0000 C   0  0  0  0  0  0  0  0  0  0  0  0
    9.1292   -3.2792    0.0000 C   0  0  0  0  0  0  0  0  0  0  0  0
    9.4292   -3.9667    0.0000 C   0  0  0  0  0  0  0  0  0  0  0  0
  2  1  1  0  0  0  0
  3  1  1  0  0  0  0
  4  2  2  0  0  0  0
  5  3  2  0  0  0  0
  6 10  1  0  0  0  0
  7  8  2  0  0  0  0
  8  4  1  0  0  0  0
  9  1  1  0  0  0  0
 10  7  1  0  0  0  0
 11  6  2  0  0  0  0
 12  2  1  0  0  0  0
 13  6  1  0  0  0  0
 14  5  1  0  0  0  0
 15  9  2  0  0  0  0
 16  9  1  0  0  0  0
 17 13  1  0  0  0  0
 18 16  2  0  0  0  0
 19 15  1  0  0  0  0
 20 18  1  0  0  0  0
  4  5  1  0  0  0  0
 19 20  2  0  0  0  0
M  END
>  <ID> (6299396)
6299396

>  <Supplier> (6299396)
ChemBridge

>  <clogP> (6299396)
2.740000000000000e+000

>  <RB> (6299396)
3

>  <tPSA> (6299396)
8.874000000000002e+001

>  <Hacc> (6299396)
6

>  <Hdon> (6299396)
2

>  <LogSw> (6299396)
-3.541000000000000e+000

>  <Group> (6299396)
1

$$$$
7965587
  -ISIS-  03310818282D

 20 23  0  0  0  0  0  0  0  0999 V2000
    3.3292    0.8375    0.0000 N   0  0  0  0  0  0  0  0  0  0  0  0
    3.8042    1.4208    0.0000 C   0  0  3  0  0  0  0  0  0  0  0  0
    2.3292    1.6583    0.0000 C   0  0  0  0  0  0  0  0  0  0  0  0
    2.8042    2.2458    0.0000 C   0  0  3  0  0  0  0  0  0  0  0  0
    2.5917    0.9583    0.0000 C   0  0  0  0  0  0  0  0  0  0  0  0
    3.5417    2.1208    0.0000 C   0  0  3  0  0  0  0  0  0  0  0  0
    4.5500    1.3000    0.0000 C   0  0  0  0  0  0  0  0  0  0  0  0
    2.6875    2.9833    0.0000 C   0  0  0  0  0  0  0  0  0  0  0  0
    1.5875    1.7833    0.0000 C   0  0  0  0  0  0  0  0  0  0  0  0
    3.3542    3.3208    0.0000 C   0  0  0  0  0  0  0  0  0  0  0  0
    2.1167    0.3750    0.0000 C   0  0  0  0  0  0  0  0  0  0  0  0
    5.5542    0.4750    0.0000 N   0  0  0  0  0  0  0  0  0  0  0  0
    1.1125    1.2000    0.0000 C   0  0  0  0  0  0  0  0  0  0  0  0
    3.8875    2.7875    0.0000 C   0  0  0  0  0  0  0  0  0  0  0  0
    1.3792    0.4958    0.0000 C   0  0  0  0  0  0  0  0  0  0  0  0
    4.8167    0.5958    0.0000 C   0  0  0  0  0  0  0  0  0  0  0  0
    0.3750    1.3208    0.0000 F   0  0  0  0  0  0  0  0  0  0  0  0
    5.0250    1.8833    0.0000 C   0  0  0  0  0  0  0  0  0  0  0  0
    6.0292    1.0583    0.0000 C   0  0  0  0  0  0  0  0  0  0  0  0
    5.7625    1.7583    0.0000 C   0  0  0  0  0  0  0  0  0  0  0  0
  2  1  1  0  0  0  0
  3  5  2  0  0  0  0
  4  3  1  0  0  0  0
  5  1  1  0  0  0  0
  6  2  1  0  0  0  0
  7  2  1  0  0  0  0
  8  4  1  0  0  0  0
  9  3  1  0  0  0  0
 10 14  1  0  0  0  0
 11  5  1  0  0  0  0
 12 16  2  0  0  0  0
 13 15  1  0  0  0  0
 14  6  1  0  0  0  0
 15 11  2  0  0  0  0
 16  7  1  0  0  0  0
 17 13  1  0  0  0  0
 18  7  2  0  0  0  0
 19 20  2  0  0  0  0
 20 18  1  0  0  0  0
  6  4  1  0  0  0  0
 13  9  2  0  0  0  0
  8 10  2  0  0  0  0
 12 19  1  0  0  0  0
M  END
>  <ID> (7965587)
7965587

>  <Supplier> (7965587)
ChemBridge

>  <clogP> (7965587)
2.960000000000000e+000

>  <RB> (7965587)
1

>  <tPSA> (7965587)
2.492000000000000e+001

>  <Hacc> (7965587)
1

>  <Hdon> (7965587)
1

>  <LogSw> (7965587)
-2.371000000000000e+000

>  <Group> (7965587)
2

>  <Core> (7965587)
359

$$$$
6211644
  -ISIS-  03310818232D

 27 29  0  0  0  0  0  0  0  0999 V2000
    4.6500    2.0833    0.0000 N   0  0  3  0  0  0  0  0  0  0  0  0
    4.0167    0.9458    0.0000 C   0  0  0  0  0  0  0  0  0  0  0  0
    4.6625    1.3333    0.0000 C   0  0  0  0  0  0  0  0  0  0  0  0
    3.9917    2.4458    0.0000 C   0  0  0  0  0  0  0  0  0  0  0  0
    3.3542    2.0625    0.0000 N   0  0  0  0  0  0  0  0  0  0  0  0
    3.3625    1.3125    0.0000 C   0  0  0  0  0  0  0  0  0  0  0  0
    5.2917    2.4583    0.0000 C   0  0  0  0  0  0  0  0  0  0  0  0
    4.0250    0.1958    0.0000 C   0  0  0  0  0  0  0  0  0  0  0  0
    5.2875    3.2083    0.0000 C   0  0  0  0  0  0  0  0  0  0  0  0
    3.9875    3.1958    0.0000 O   0  0  0  0  0  0  0  0  0  0  0  0
    5.3167    0.9625    0.0000 O   0  0  0  0  0  0  0  0  0  0  0  0
    5.9292    3.5958    0.0000 C   0  0  0  0  0  0  0  0  0  0  0  0
    2.8417   -1.1500    0.0000 C   0  0  0  0  0  0  0  0  0  0  0  0
    2.7167    0.9333    0.0000 O   0  0  0  0  0  0  0  0  0  0  0  0
    3.3792   -0.1875    0.0000 C   0  0  0  0  0  0  0  0  0  0  0  0
    5.9500    2.0958    0.0000 C   0  0  0  0  0  0  0  0  0  0  0  0
    2.2875   -0.8292    0.0000 C   0  0  0  0  0  0  0  0  0  0  0  0
    3.3875   -0.8250    0.0000 C   0  0  0  0  0  0  0  0  0  0  0  0
    6.5875    3.2333    0.0000 C   0  0  0  0  0  0  0  0  0  0  0  0
    6.5917    2.4750    0.0000 C   0  0  0  0  0  0  0  0  0  0  0  0
    2.2792   -0.2042    0.0000 C   0  0  0  0  0  0  0  0  0  0  0  0
    2.8292    0.1208    0.0000 C   0  0  0  0  0  0  0  0  0  0  0  0
    2.8542   -1.7917    0.0000 O   0  0  0  0  0  0  0  0  0  0  0  0
    1.7292   -1.1625    0.0000 O   0  0  0  0  0  0  0  0  0  0  0  0
    5.9167    4.3375    0.0000 C   0  0  0  0  0  0  0  0  0  0  0  0
    7.2292    3.6083    0.0000 C   0  0  0  0  0  0  0  0  0  0  0  0
    2.3000   -2.1167    0.0000 C   0  0  0  0  0  0  0  0  0  0  0  0
  2  3  1  0  0  0  0
  3  1  1  0  0  0  0
  4  1  1  0  0  0  0
  5  4  1  0  0  0  0
  6  5  1  0  0  0  0
  7  1  1  0  0  0  0
  8  2  2  0  0  0  0
  9  7  2  0  0  0  0
 10  4  2  0  0  0  0
 11  3  2  0  0  0  0
 12  9  1  0  0  0  0
 13 18  1  0  0  0  0
 14  6  2  0  0  0  0
 15  8  1  0  0  0  0
 16  7  1  0  0  0  0
 17 21  1  0  0  0  0
 18 15  2  0  0  0  0
 19 20  1  0  0  0  0
 20 16  2  0  0  0  0
 21 22  2  0  0  0  0
 22 15  1  0  0  0  0
 23 13  1  0  0  0  0
 24 17  1  0  0  0  0
 25 12  1  0  0  0  0
 26 19  1  0  0  0  0
 27 23  1  0  0  0  0
  2  6  1  0  0  0  0
 19 12  2  0  0  0  0
 17 13  2  0  0  0  0
M  END
>  <ID> (6211644)
6211644

>  <Supplier> (6211644)
ChemBridge

>  <clogP> (6211644)
4.140000000000000e+000

>  <RB> (6211644)
2

>  <tPSA> (6211644)
9.594000000000000e+001

>  <Hacc> (6211644)
5

>  <Hdon> (6211644)
2

>  <LogSw> (6211644)
-5.407000000000000e+000

>  <Group> (6211644)
2

>  <Core> (6211644)
006

$$$$
7965586
  -ISIS-  03310818282D

 20 22  0  0  0  0  0  0  0  0999 V2000
    5.6292    2.0958    0.0000 S   0  0  3  0  0  0  0  0  0  0  0  0
    0.7417    1.6708    0.0000 N   0  3  0  0  0  0  0  0  0  0  0  0
    2.6167    1.0208    0.0000 C   0  0  0  0  0  0  0  0  0  0  0  0
    3.7292    1.5125    0.0000 C   0  0  0  0  0  0  0  0  0  0  0  0
    3.1167    0.4625    0.0000 O   0  0  0  0  0  0  0  0  0  0  0  0
    2.9917    1.6708    0.0000 C   0  0  0  0  0  0  0  0  0  0  0  0
    3.8042    0.7708    0.0000 C   0  0  0  0  0  0  0  0  0  0  0  0
    5.0167    1.6500    0.0000 C   0  0  0  0  0  0  0  0  0  0  0  0
    4.3375    1.9583    0.0000 C   0  0  0  0  0  0  0  0  0  0  0  0
    1.8667    1.0208    0.0000 C   0  0  0  0  0  0  0  0  0  0  0  0
    1.4917    1.6708    0.0000 C   0  0  0  0  0  0  0  0  0  0  0  0
    2.6167    2.3208    0.0000 C   0  0  0  0  0  0  0  0  0  0  0  0
    6.2125    1.6208    0.0000 O   0  0  0  0  0  0  0  0  0  0  0  0
    6.1500    2.6333    0.0000 O   0  0  0  0  0  0  0  0  0  0  0  0
    0.3667    2.3208    0.0000 O   0  5  0  0  0  0  0  0  0  0  0  0
    0.3667    1.0208    0.0000 O   0  0  0  0  0  0  0  0  0  0  0  0
    5.1375    2.6583    0.0000 N   0  0  0  0  0  0  0  0  0  0  0  0
    1.8667    2.3208    0.0000 C   0  0  0  0  0  0  0  0  0  0  0  0
    4.4917    0.4625    0.0000 C   0  0  0  0  0  0  0  0  0  0  0  0
    5.1000    0.9083    0.0000 C   0  0  0  0  0  0  0  0  0  0  0  0
  2 11  1  0  0  0  0
  3  6  2  0  0  0  0
  4  9  1  0  0  0  0
  5  7  1  0  0  0  0
  6  4  1  0  0  0  0
  7 19  1  0  0  0  0
  8  1  1  0  0  0  0
  9  8  2  0  0  0  0
 10  3  1  0  0  0  0
 11 18  1  0  0  0  0
 12  6  1  0  0  0  0
 13  1  2  0  0  0  0
 14  1  2  0  0  0  0
 15  2  1  0  0  0  0
 16  2  2  0  0  0  0
 17  1  1  0  0  0  0
 18 12  2  0  0  0  0
 19 20  2  0  0  0  0
 20  8  1  0  0  0  0
  4  7  2  0  0  0  0
  3  5  1  0  0  0  0
 11 10  2  0  0  0  0
M  CHG  2   2   1  15  -1
M  END
>  <ID> (7965586)
7965586

>  <Supplier> (7965586)
ChemBridge

>  <clogP> (7965586)
2.124000000000000e+000

>  <RB> (7965586)
1

>  <tPSA> (7965586)
1.164400000000000e+002

>  <Hacc> (7965586)
6

>  <Hdon> (7965586)
1

>  <LogSw> (7965586)
-4.646000000000000e+000

>  <Group> (7965586)
1

$$$$
6683371
  -ISIS-  03310818242D

 27 29  0  0  0  0  0  0  0  0999 V2000
    2.1750   -2.2667    0.0000 C   0  0  0  0  0  0  0  0  0  0  0  0
    2.2542   -1.4500    0.0000 C   0  0  0  0  0  0  0  0  0  0  0  0
    2.9292   -2.6042    0.0000 S   0  0  0  0  0  0  0  0  0  0  0  0
    3.0625   -1.2792    0.0000 C   0  0  0  0  0  0  0  0  0  0  0  0
    3.4792   -1.9917    0.0000 C   0  0  0  0  0  0  0  0  0  0  0  0
    1.4625   -2.6875    0.0000 N   0  0  0  0  0  0  0  0  0  0  0  0
    1.6375   -0.9042    0.0000 C   0  0  0  0  0  0  0  0  0  0  0  0
    0.0375   -5.1667    0.0000 C   0  0  0  0  0  0  0  0  0  0  0  0
   -0.6750   -4.7542    0.0000 C   0  0  0  0  0  0  0  0  0  0  0  0
    0.0417   -5.9917    0.0000 C   0  0  0  0  0  0  0  0  0  0  0  0
    1.4667   -3.5125    0.0000 C   0  0  0  0  0  0  0  0  0  0  0  0
    0.7542   -4.7542    0.0000 O   0  0  0  0  0  0  0  0  0  0  0  0
   -0.6708   -6.4125    0.0000 C   0  0  0  0  0  0  0  0  0  0  0  0
   -1.3958   -5.1667    0.0000 C   0  0  0  0  0  0  0  0  0  0  0  0
    1.8042   -0.0917    0.0000 O   0  0  0  0  0  0  0  0  0  0  0  0
   -1.3958   -5.9917    0.0000 C   0  0  0  0  0  0  0  0  0  0  0  0
    2.1792   -3.9167    0.0000 O   0  0  0  0  0  0  0  0  0  0  0  0
    0.7542   -3.9292    0.0000 C   0  0  0  0  0  0  0  0  0  0  0  0
    0.8542   -1.1625    0.0000 N   0  0  0  0  0  0  0  0  0  0  0  0
    3.4667   -0.5625    0.0000 C   0  0  0  0  0  0  0  0  0  0  0  0
    4.2917   -1.9792    0.0000 C   0  0  0  0  0  0  0  0  0  0  0  0
   -0.6708   -3.9292    0.0000 C   0  0  0  0  0  0  0  0  0  0  0  0
    0.7542   -6.4042    0.0000 C   0  0  0  0  0  0  0  0  0  0  0  0
   -2.1083   -6.4042    0.0000 C   0  0  0  0  0  0  0  0  0  0  0  0
    0.2417   -0.6125    0.0000 C   0  0  0  0  0  0  0  0  0  0  0  0
    4.2917   -0.5542    0.0000 C   0  0  0  0  0  0  0  0  0  0  0  0
    4.7042   -1.2667    0.0000 C   0  0  0  0  0  0  0  0  0  0  0  0
  2  1  2  0  0  0  0
  3  1  1  0  0  0  0
  4  2  1  0  0  0  0
  5  3  1  0  0  0  0
  6  1  1  0  0  0  0
  7  2  1  0  0  0  0
  8 12  1  0  0  0  0
  9  8  2  0  0  0  0
 10  8  1  0  0  0  0
 11  6  1  0  0  0  0
 12 18  1  0  0  0  0
 13 10  2  0  0  0  0
 14  9  1  0  0  0  0
 15  7  2  0  0  0  0
 16 13  1  0  0  0  0
 17 11  2  0  0  0  0
 18 11  1  0  0  0  0
 19  7  1  0  0  0  0
 20  4  1  0  0  0  0
 21  5  1  0  0  0  0
 22  9  1  0  0  0  0
 23 10  1  0  0  0  0
 24 16  1  0  0  0  0
 25 19  1  0  0  0  0
 26 20  1  0  0  0  0
 27 21  1  0  0  0  0
  5  4  2  0  0  0  0
 26 27  1  0  0  0  0
 16 14  2  0  0  0  0
M  END
>  <ID> (6683371)
6683371

>  <Supplier> (6683371)
ChemBridge

>  <clogP> (6683371)
4.910000000000000e+000

>  <RB> (6683371)
5

>  <tPSA> (6683371)
6.743000000000001e+001

>  <Hacc> (6683371)
3

>  <Hdon> (6683371)
2

>  <LogSw> (6683371)
-6.211000000000000e+000

>  <Group> (6683371)
2

>  <Core> (6683371)
097

$$$$
9083757
  -ISIS-  03310818292D

 27 29  0  0  0  0  0  0  0  0999 V2000
    2.9667    1.3458    0.0000 N   0  0  0  0  0  0  0  0  0  0  0  0
    2.2250    1.4208    0.0000 C   0  0  0  0  0  0  0  0  0  0  0  0
    3.1250    0.6125    0.0000 C   0  0  0  0  0  0  0  0  0  0  0  0
    1.9167    0.7375    0.0000 N   0  0  0  0  0  0  0  0  0  0  0  0
    2.4792    0.2375    0.0000 O   0  0  0  0  0  0  0  0  0  0  0  0
    5.1042    0.4458    0.0000 C   0  0  0  0  0  0  0  0  0  0  0  0
    4.4167    0.7458    0.0000 N   0  0  3  0  0  0  0  0  0  0  0  0
    3.8125    0.3083    0.0000 C   0  0  0  0  0  0  0  0  0  0  0  0
    1.8500    2.0708    0.0000 C   0  0  0  0  0  0  0  0  0  0  0  0
    7.6875    0.7125    0.0000 C   0  0  0  0  0  0  0  0  0  0  0  0
    7.0042    1.0208    0.0000 C   0  0  0  0  0  0  0  0  0  0  0  0
    6.3917    0.5833    0.0000 O   0  0  0  0  0  0  0  0  0  0  0  0
    5.7125    0.8833    0.0000 C   0  0  0  0  0  0  0  0  0  0  0  0
    5.1792   -0.3042    0.0000 O   0  0  0  0  0  0  0  0  0  0  0  0
    8.2917    1.1583    0.0000 C   0  0  0  0  0  0  0  0  0  0  0  0
    2.2250    2.7208    0.0000 C   0  0  0  0  0  0  0  0  0  0  0  0
    1.1000    2.0708    0.0000 C   0  0  0  0  0  0  0  0  0  0  0  0
    6.9250    1.7625    0.0000 C   0  0  0  0  0  0  0  0  0  0  0  0
    8.2167    1.9000    0.0000 C   0  0  0  0  0  0  0  0  0  0  0  0
    1.1000    3.3708    0.0000 C   0  0  0  0  0  0  0  0  0  0  0  0
    7.5292    2.2083    0.0000 C   0  0  0  0  0  0  0  0  0  0  0  0
    1.8500    3.3708    0.0000 C   0  0  0  0  0  0  0  0  0  0  0  0
    0.7250    2.7208    0.0000 C   0  0  0  0  0  0  0  0  0  0  0  0
    0.7250    4.0167    0.0000 Cl  0  0  0  0  0  0  0  0  0  0  0  0
    4.3417    1.4958    0.0000 C   0  0  0  0  0  0  0  0  0  0  0  0
    7.7667   -0.0292    0.0000 C   0  0  0  0  0  0  0  0  0  0  0  0
    8.8250    2.3458    0.0000 C   0  0  0  0  0  0  0  0  0  0  0  0
  2  1  1  0  0  0  0
  3  1  2  0  0  0  0
  4  2  2  0  0  0  0
  5  3  1  0  0  0  0
  6  7  1  0  0  0  0
  7  8  1  0  0  0  0
  8  3  1  0  0  0  0
  9  2  1  0  0  0  0
 10 11  2  0  0  0  0
 11 12  1  0  0  0  0
 12 13  1  0  0  0  0
 13  6  1  0  0  0  0
 14  6  2  0  0  0  0
 15 10  1  0  0  0  0
 16  9  1  0  0  0  0
 17  9  2  0  0  0  0
 18 11  1  0  0  0  0
 19 21  1  0  0  0  0
 20 23  2  0  0  0  0
 21 18  2  0  0  0  0
 22 16  2  0  0  0  0
 23 17  1  0  0  0  0
 24 20  1  0  0  0  0
 25  7  1  0  0  0  0
 26 10  1  0  0  0  0
 27 19  1  0  0  0  0
  4  5  1  0  0  0  0
 22 20  1  0  0  0  0
 15 19  2  0  0  0  0
M  END
>  <ID> (9083757)
9083757

>  <Supplier> (9083757)
ChemBridge

>  <clogP> (9083757)
4.121000000000000e+000

>  <RB> (9083757)
6

>  <tPSA> (9083757)
6.845999999999998e+001

>  <Hacc> (9083757)
5

>  <Hdon> (9083757)
0

>  <LogSw> (9083757)
-5.532000000000000e+000

>  <Group> (9083757)
2

>  <Core> (9083757)
204

$$$$
5547689
  -ISIS-  03310818222D

 27 30  0  0  0  0  0  0  0  0999 V2000
   -2.5125   -0.4500    0.0000 N   0  0  3  0  0  0  0  0  0  0  0  0
   -1.7958   -0.0667    0.0000 C   0  0  0  0  0  0  0  0  0  0  0  0
   -2.3958   -1.2042    0.0000 C   0  0  0  0  0  0  0  0  0  0  0  0
   -1.2333   -0.6500    0.0000 C   0  0  3  0  0  0  0  0  0  0  0  0
   -1.5958   -1.3500    0.0000 C   0  0  0  0  0  0  0  0  0  0  0  0
   -0.3958   -0.6500    0.0000 N   0  0  3  0  0  0  0  0  0  0  0  0
    1.0042    0.1958    0.0000 N   0  0  3  0  0  0  0  0  0  0  0  0
   -3.2125   -0.0042    0.0000 C   0  0  0  0  0  0  0  0  0  0  0  0
    1.7000    0.6208    0.0000 C   0  0  0  0  0  0  0  0  0  0  0  0
   -1.6708    0.7500    0.0000 O   0  0  0  0  0  0  0  0  0  0  0  0
    1.6792    1.4458    0.0000 C   0  0  0  0  0  0  0  0  0  0  0  0
   -3.0125   -1.7667    0.0000 O   0  0  0  0  0  0  0  0  0  0  0  0
    0.3042   -1.0500    0.0000 C   0  0  0  0  0  0  0  0  0  0  0  0
   -0.3958    0.1958    0.0000 C   0  0  0  0  0  0  0  0  0  0  0  0
    1.0042   -0.6500    0.0000 C   0  0  0  0  0  0  0  0  0  0  0  0
    0.3042    0.5958    0.0000 C   0  0  0  0  0  0  0  0  0  0  0  0
   -3.9333   -0.4042    0.0000 C   0  0  0  0  0  0  0  0  0  0  0  0
   -3.1958    0.8125    0.0000 C   0  0  0  0  0  0  0  0  0  0  0  0
    2.3792    1.8833    0.0000 C   0  0  0  0  0  0  0  0  0  0  0  0
   -4.6125    0.8333    0.0000 C   0  0  0  0  0  0  0  0  0  0  0  0
   -4.6333    0.0125    0.0000 C   0  0  0  0  0  0  0  0  0  0  0  0
   -3.8958    1.2333    0.0000 C   0  0  0  0  0  0  0  0  0  0  0  0
    2.3542    2.6958    0.0000 Cl  0  0  0  0  0  0  0  0  0  0  0  0
   -5.3125    1.2500    0.0000 Br  0  0  0  0  0  0  0  0  0  0  0  0
    2.4167    0.2458    0.0000 C   0  0  0  0  0  0  0  0  0  0  0  0
    3.1167    0.6625    0.0000 C   0  0  0  0  0  0  0  0  0  0  0  0
    3.1042    1.5000    0.0000 C   0  0  0  0  0  0  0  0  0  0  0  0
  2  1  1  0  0  0  0
  3  1  1  0  0  0  0
  4  2  1  0  0  0  0
  5  3  1  0  0  0  0
  6  4  1  0  0  0  0
  7 16  1  0  0  0  0
  8  1  1  0  0  0  0
  9  7  1  0  0  0  0
 10  2  2  0  0  0  0
 11  9  1  0  0  0  0
 12  3  2  0  0  0  0
 13  6  1  0  0  0  0
 14  6  1  0  0  0  0
 15 13  1  0  0  0  0
 16 14  1  0  0  0  0
 17  8  1  0  0  0  0
 18  8  2  0  0  0  0
 19 11  2  0  0  0  0
 20 22  2  0  0  0  0
 21 17  2  0  0  0  0
 22 18  1  0  0  0  0
 23 19  1  0  0  0  0
 24 20  1  0  0  0  0
 25  9  2  0  0  0  0
 26 25  1  0  0  0  0
 27 26  2  0  0  0  0
  4  5  1  0  0  0  0
 20 21  1  0  0  0  0
 15  7  1  0  0  0  0
 19 27  1  0  0  0  0
M  END
>  <ID> (5547689)
5547689

>  <Supplier> (5547689)
ChemBridge

>  <clogP> (5547689)
4.440000000000000e+000

>  <RB> (5547689)
3

>  <tPSA> (5547689)
4.386000000000000e+001

>  <Hacc> (5547689)
3

>  <Hdon> (5547689)
0

>  <LogSw> (5547689)
-6.263000000000000e+000

>  <Group> (5547689)
1

>  <Core> (5547689)
558

$$$$
7785407
  -ISIS-  03310818272D

 31 34  0  0  0  0  0  0  0  0999 V2000
    7.0750   -2.3042    0.0000 C   0  0  0  0  0  0  0  0  0  0  0  0
    7.0750   -1.4792    0.0000 C   0  0  0  0  0  0  0  0  0  0  0  0
    6.3542   -2.7167    0.0000 C   0  0  0  0  0  0  0  0  0  0  0  0
    6.3542   -1.0667    0.0000 O   0  0  0  0  0  0  0  0  0  0  0  0
    5.6417   -1.4792    0.0000 C   0  0  0  0  0  0  0  0  0  0  0  0
    5.6417   -2.3042    0.0000 C   0  0  0  0  0  0  0  0  0  0  0  0
    4.9292   -1.0667    0.0000 C   0  0  0  0  0  0  0  0  0  0  0  0
    7.7917   -2.7292    0.0000 C   0  0  0  0  0  0  0  0  0  0  0  0
    4.9292   -2.7167    0.0000 C   0  0  0  0  0  0  0  0  0  0  0  0
    8.5042   -3.9667    0.0000 C   0  0  0  0  0  0  0  0  0  0  0  0
    7.7917   -1.0667    0.0000 O   0  0  0  0  0  0  0  0  0  0  0  0
    2.0542   -0.2542    0.0000 C   0  0  0  0  0  0  0  0  0  0  0  0
    2.0625   -1.0792    0.0000 C   0  0  0  0  0  0  0  0  0  0  0  0
    8.5042   -4.8000    0.0000 O   0  0  0  0  0  0  0  0  0  0  0  0
    2.7792   -1.4875    0.0000 C   0  0  0  0  0  0  0  0  0  0  0  0
    4.2167   -1.4875    0.0000 C   0  0  0  0  0  0  0  0  0  0  0  0
    3.4917   -1.0667    0.0000 O   0  0  0  0  0  0  0  0  0  0  0  0
    7.7917   -3.5542    0.0000 C   0  0  0  0  0  0  0  0  0  0  0  0
    1.3417    0.1583    0.0000 C   0  0  0  0  0  0  0  0  0  0  0  0
    4.2167   -2.3042    0.0000 C   0  0  0  0  0  0  0  0  0  0  0  0
    6.3542   -3.5417    0.0000 C   0  0  0  0  0  0  0  0  0  0  0  0
    9.2167   -3.5542    0.0000 O   0  0  0  0  0  0  0  0  0  0  0  0
    0.6250   -1.0917    0.0000 C   0  0  0  0  0  0  0  0  0  0  0  0
    1.3417   -1.5000    0.0000 C   0  0  0  0  0  0  0  0  0  0  0  0
    2.7625    0.1583    0.0000 C   0  0  0  0  0  0  0  0  0  0  0  0
    0.6167   -0.2625    0.0000 C   0  0  0  0  0  0  0  0  0  0  0  0
    1.3417    0.9708    0.0000 C   0  0  0  0  0  0  0  0  0  0  0  0
    9.2167   -2.7292    0.0000 C   0  0  0  0  0  0  0  0  0  0  0  0
    9.9292   -2.3167    0.0000 C   0  0  0  0  0  0  0  0  0  0  0  0
    2.7625    0.9750    0.0000 C   0  0  0  0  0  0  0  0  0  0  0  0
    2.0500    1.3833    0.0000 C   0  0  0  0  0  0  0  0  0  0  0  0
  2  1  1  0  0  0  0
  3  1  2  0  0  0  0
  4  2  1  0  0  0  0
  5  6  1  0  0  0  0
  6  3  1  0  0  0  0
  7  5  2  0  0  0  0
  8  1  1  0  0  0  0
  9  6  2  0  0  0  0
 10 18  1  0  0  0  0
 11  2  2  0  0  0  0
 12 13  2  0  0  0  0
 13 15  1  0  0  0  0
 14 10  2  0  0  0  0
 15 17  1  0  0  0  0
 16 20  2  0  0  0  0
 17 16  1  0  0  0  0
 18  8  1  0  0  0  0
 19 12  1  0  0  0  0
 20  9  1  0  0  0  0
 21  3  1  0  0  0  0
 22 10  1  0  0  0  0
 23 24  2  0  0  0  0
 24 13  1  0  0  0  0
 25 12  1  0  0  0  0
 26 23  1  0  0  0  0
 27 19  1  0  0  0  0
 28 22  1  0  0  0  0
 29 28  1  0  0  0  0
 30 25  2  0  0  0  0
 31 30  1  0  0  0  0
  5  4  1  0  0  0  0
  7 16  1  0  0  0  0
 26 19  2  0  0  0  0
 27 31  2  0  0  0  0
M  END
>  <ID> (7785407)
7785407

>  <Supplier> (7785407)
ChemBridge

>  <clogP> (7785407)
5.800000000000000e+000

>  <RB> (7785407)
6

>  <tPSA> (7785407)
6.574000000000000e+001

>  <Hacc> (7785407)
5

>  <Hdon> (7785407)
0

>  <LogSw> (7785407)
-7.189000000000000e+000

>  <Group> (7785407)
1

>  <Core> (7785407)
075

$$$$
7965584
  -ISIS-  03310818282D

 24 26  0  0  0  0  0  0  0  0999 V2000
    2.9292    2.8458    0.0000 C   0  0  0  0  0  0  0  0  0  0  0  0
    3.0042    3.5875    0.0000 N   0  0  3  0  0  0  0  0  0  0  0  0
    3.6125    2.5375    0.0000 N   0  0  3  0  0  0  0  0  0  0  0  0
    4.1167    3.0958    0.0000 C   0  0  0  0  0  0  0  0  0  0  0  0
    3.7417    3.7458    0.0000 C   0  0  0  0  0  0  0  0  0  0  0  0
    4.8667    3.0958    0.0000 C   0  0  0  0  0  0  0  0  0  0  0  0
    4.1167    4.3917    0.0000 C   0  0  0  0  0  0  0  0  0  0  0  0
    5.2417    3.7458    0.0000 C   0  0  0  0  0  0  0  0  0  0  0  0
    6.3667    3.0958    0.0000 C   0  0  0  0  0  0  0  0  0  0  0  0
    5.9917    3.7458    0.0000 N   0  0  0  0  0  0  0  0  0  0  0  0
    4.8667    4.3917    0.0000 C   0  0  0  0  0  0  0  0  0  0  0  0
    2.2792    2.4708    0.0000 O   0  0  0  0  0  0  0  0  0  0  0  0
    5.9917    2.4458    0.0000 O   0  0  0  0  0  0  0  0  0  0  0  0
    7.1167    3.0958    0.0000 C   0  0  0  0  0  0  0  0  0  0  0  0
    8.6167    3.0958    0.0000 N   0  0  0  0  0  0  0  0  0  0  0  0
    2.4417    4.0875    0.0000 C   0  0  0  0  0  0  0  0  0  0  0  0
    3.7667    1.8083    0.0000 C   0  0  0  0  0  0  0  0  0  0  0  0
    5.2417    5.0292    0.0000 Br  0  0  0  0  0  0  0  0  0  0  0  0
    8.2417    3.7458    0.0000 C   0  0  0  0  0  0  0  0  0  0  0  0
    8.2417    2.4458    0.0000 C   0  0  0  0  0  0  0  0  0  0  0  0
    7.4917    3.7458    0.0000 C   0  0  0  0  0  0  0  0  0  0  0  0
    7.4917    2.4458    0.0000 C   0  0  0  0  0  0  0  0  0  0  0  0
    4.4792    1.5708    0.0000 C   0  0  0  0  0  0  0  0  0  0  0  0
    2.6042    4.8167    0.0000 C   0  0  0  0  0  0  0  0  0  0  0  0
  2  1  1  0  0  0  0
  3  1  1  0  0  0  0
  4  3  1  0  0  0  0
  5  2  1  0  0  0  0
  6  4  1  0  0  0  0
  7  5  1  0  0  0  0
  8  6  2  0  0  0  0
  9 10  1  0  0  0  0
 10  8  1  0  0  0  0
 11  7  2  0  0  0  0
 12  1  2  0  0  0  0
 13  9  2  0  0  0  0
 14  9  1  0  0  0  0
 15 20  2  0  0  0  0
 16  2  1  0  0  0  0
 17  3  1  0  0  0  0
 18 11  1  0  0  0  0
 19 21  2  0  0  0  0
 20 22  1  0  0  0  0
 21 14  1  0  0  0  0
 22 14  2  0  0  0  0
 23 17  1  0  0  0  0
 24 16  1  0  0  0  0
  4  5  2  0  0  0  0
  8 11  1  0  0  0  0
 19 15  1  0  0  0  0
M  END
>  <ID> (7965584)
7965584

>  <Supplier> (7965584)
ChemBridge

>  <clogP> (7965584)
2.384000000000000e+000

>  <RB> (7965584)
2

>  <tPSA> (7965584)
6.891999999999999e+001

>  <Hacc> (7965584)
3

>  <Hdon> (7965584)
1

>  <LogSw> (7965584)
-4.074000000000000e+000

>  <Group> (7965584)
3

$$$$
6211984
  -ISIS-  03310818232D

 30 32  0  0  0  0  0  0  0  0999 V2000
    5.0125   -3.2667    0.0000 N   0  0  3  0  0  0  0  0  0  0  0  0
    4.7792   -3.9792    0.0000 C   0  0  0  0  0  0  0  0  0  0  0  0
    5.7667   -3.2625    0.0000 C   0  0  0  0  0  0  0  0  0  0  0  0
    6.0000   -3.9792    0.0000 C   0  0  0  0  0  0  0  0  0  0  0  0
    5.3917   -4.4250    0.0000 S   0  0  0  0  0  0  0  0  0  0  0  0
    6.7167   -4.2125    0.0000 C   0  0  0  0  0  0  0  0  0  0  0  0
    4.0667   -4.2167    0.0000 S   0  0  0  0  0  0  0  0  0  0  0  0
    6.2042   -2.6542    0.0000 O   0  0  0  0  0  0  0  0  0  0  0  0
    5.8917    2.9208    0.0000 C   0  0  0  0  0  0  0  0  0  0  0  0
    7.2792   -3.7125    0.0000 C   0  0  0  0  0  0  0  0  0  0  0  0
    5.3292    2.4208    0.0000 C   0  0  0  0  0  0  0  0  0  0  0  0
    6.6042    2.6833    0.0000 C   0  0  0  0  0  0  0  0  0  0  0  0
    4.5667   -2.6542    0.0000 C   0  0  0  0  0  0  0  0  0  0  0  0
    5.4875    1.6833    0.0000 C   0  0  0  0  0  0  0  0  0  0  0  0
    6.7542    1.9583    0.0000 C   0  0  0  0  0  0  0  0  0  0  0  0
    7.1167   -2.9750    0.0000 C   0  0  0  0  0  0  0  0  0  0  0  0
    6.2042    1.4458    0.0000 C   0  0  0  0  0  0  0  0  0  0  0  0
    7.6875   -2.4667    0.0000 C   0  0  0  0  0  0  0  0  0  0  0  0
    7.4667    1.7208    0.0000 O   0  0  0  0  0  0  0  0  0  0  0  0
    7.5292   -1.7292    0.0000 O   0  0  0  0  0  0  0  0  0  0  0  0
    8.5542   -3.4417    0.0000 C   0  0  0  0  0  0  0  0  0  0  0  0
    8.4917    0.0083    0.0000 O   0  0  0  0  0  0  0  0  0  0  0  0
    5.7375    3.6583    0.0000 C   0  0  0  0  0  0  0  0  0  0  0  0
    7.9917   -3.9417    0.0000 C   0  0  0  0  0  0  0  0  0  0  0  0
    4.6125    2.6583    0.0000 C   0  0  0  0  0  0  0  0  0  0  0  0
    8.4000   -2.7042    0.0000 C   0  0  0  0  0  0  0  0  0  0  0  0
    8.0917   -1.2292    0.0000 C   0  0  0  0  0  0  0  0  0  0  0  0
    7.6250    0.9833    0.0000 C   0  0  0  0  0  0  0  0  0  0  0  0
    8.3417    0.7458    0.0000 C   0  0  0  0  0  0  0  0  0  0  0  0
    7.9375   -0.4917    0.0000 C   0  0  0  0  0  0  0  0  0  0  0  0
  2  1  1  0  0  0  0
  3  1  1  0  0  0  0
  4  3  1  0  0  0  0
  5  2  1  0  0  0  0
  6  4  2  0  0  0  0
  7  2  2  0  0  0  0
  8  3  2  0  0  0  0
  9 12  1  0  0  0  0
 10  6  1  0  0  0  0
 11 14  1  0  0  0  0
 12 15  2  0  0  0  0
 13  1  1  0  0  0  0
 14 17  2  0  0  0  0
 15 19  1  0  0  0  0
 16 10  2  0  0  0  0
 17 15  1  0  0  0  0
 18 16  1  0  0  0  0
 19 28  1  0  0  0  0
 20 18  1  0  0  0  0
 21 24  2  0  0  0  0
 22 30  1  0  0  0  0
 23  9  1  0  0  0  0
 24 10  1  0  0  0  0
 25 11  1  0  0  0  0
 26 21  1  0  0  0  0
 27 20  1  0  0  0  0
 28 29  1  0  0  0  0
 29 22  1  0  0  0  0
 30 27  1  0  0  0  0
  5  4  1  0  0  0  0
 26 18  2  0  0  0  0
 11  9  2  0  0  0  0
M  END
>  <ID> (6211984)
6211984

>  <Supplier> (6211984)
ChemBridge

>  <clogP> (6211984)
4.750000000000000e+000

>  <RB> (6211984)
9

>  <tPSA> (6211984)
4.800000000000000e+001

>  <Hacc> (6211984)
4

>  <Hdon> (6211984)
0

>  <LogSw> (6211984)
-6.490000000000000e+000

>  <Group> (6211984)
1

>  <Core> (6211984)
001

$$$$
6211986
  -ISIS-  03310818232D

 20 21  0  0  0  0  0  0  0  0999 V2000
    8.0042   -3.1542    0.0000 N   0  0  0  0  0  0  0  0  0  0  0  0
    7.2917   -3.5667    0.0000 C   0  0  0  0  0  0  0  0  0  0  0  0
    8.7167   -3.5625    0.0000 C   0  0  0  0  0  0  0  0  0  0  0  0
    6.5792   -3.1542    0.0000 C   0  0  0  0  0  0  0  0  0  0  0  0
    9.4250   -3.1500    0.0000 C   0  0  0  0  0  0  0  0  0  0  0  0
    7.2917   -4.3917    0.0000 O   0  0  0  0  0  0  0  0  0  0  0  0
    5.1542   -3.1542    0.0000 S   0  0  0  0  0  0  0  0  0  0  0  0
    4.4375   -3.5667    0.0000 C   0  0  0  0  0  0  0  0  0  0  0  0
    5.8667   -3.5667    0.0000 C   0  0  0  0  0  0  0  0  0  0  0  0
    3.0042   -4.3792    0.0000 C   0  0  0  0  0  0  0  0  0  0  0  0
    9.4292   -2.3250    0.0000 Br  0  0  0  0  0  0  0  0  0  0  0  0
    2.2875   -4.7875    0.0000 Cl  0  0  0  0  0  0  0  0  0  0  0  0
    3.7167   -3.1417    0.0000 C   0  0  0  0  0  0  0  0  0  0  0  0
    4.4375   -4.3792    0.0000 C   0  0  0  0  0  0  0  0  0  0  0  0
    3.0042   -3.5542    0.0000 C   0  0  0  0  0  0  0  0  0  0  0  0
    3.7167   -4.7917    0.0000 C   0  0  0  0  0  0  0  0  0  0  0  0
    8.7125   -4.3792    0.0000 C   0  0  0  0  0  0  0  0  0  0  0  0
   10.1375   -3.5667    0.0000 C   0  0  0  0  0  0  0  0  0  0  0  0
    9.4250   -4.7917    0.0000 C   0  0  0  0  0  0  0  0  0  0  0  0
   10.1292   -4.3792    0.0000 C   0  0  0  0  0  0  0  0  0  0  0  0
  2  1  1  0  0  0  0
  3  1  1  0  0  0  0
  4  2  1  0  0  0  0
  5  3  1  0  0  0  0
  6  2  2  0  0  0  0
  7  9  1  0  0  0  0
  8  7  1  0  0  0  0
  9  4  1  0  0  0  0
 10 16  1  0  0  0  0
 11  5  1  0  0  0  0
 12 10  1  0  0  0  0
 13  8  2  0  0  0  0
 14  8  1  0  0  0  0
 15 13  1  0  0  0  0
 16 14  2  0  0  0  0
 17  3  2  0  0  0  0
 18  5  2  0  0  0  0
 19 17  1  0  0  0  0
 20 19  2  0  0  0  0
 18 20  1  0  0  0  0
 15 10  2  0  0  0  0
M  END
>  <ID> (6211986)
6211986

>  <Supplier> (6211986)
ChemBridge

>  <clogP> (6211986)
4.520000000000000e+000

>  <RB> (6211986)
5

>  <tPSA> (6211986)
2.910000000000000e+001

>  <Hacc> (6211986)
1

>  <Hdon> (6211986)
1

>  <LogSw> (6211986)
-5.763000000000000e+000

>  <Group> (6211986)
3

>  <Core> (6211986)
520

$$$$
7006766
  -ISIS-  03310818252D

 22 23  0  0  0  0  0  0  0  0999 V2000
    2.9292   -1.9292    0.0000 N   0  0  0  0  0  0  0  0  0  0  0  0
    2.2167   -1.5167    0.0000 C   0  0  0  0  0  0  0  0  0  0  0  0
    3.6417   -1.5167    0.0000 C   0  0  0  0  0  0  0  0  0  0  0  0
   -1.3625   -3.5750    0.0000 C   0  0  0  0  0  0  0  0  0  0  0  0
    1.5042   -1.9292    0.0000 N   0  0  0  0  0  0  0  0  0  0  0  0
    2.2167   -0.6917    0.0000 S   0  0  0  0  0  0  0  0  0  0  0  0
    4.3542   -1.9292    0.0000 C   0  0  0  0  0  0  0  0  0  0  0  0
   -0.6458   -3.1625    0.0000 C   0  0  0  0  0  0  0  0  0  0  0  0
    3.6417   -0.6917    0.0000 O   0  0  0  0  0  0  0  0  0  0  0  0
   -2.0750   -3.1625    0.0000 O   0  0  0  0  0  0  0  0  0  0  0  0
    5.0792   -1.5167    0.0000 C   0  0  0  0  0  0  0  0  0  0  0  0
    4.3542   -2.7625    0.0000 C   0  0  0  0  0  0  0  0  0  0  0  0
    0.0667   -3.5750    0.0000 C   0  0  0  0  0  0  0  0  0  0  0  0
   -0.6458   -2.3292    0.0000 C   0  0  0  0  0  0  0  0  0  0  0  0
    0.7875   -2.3417    0.0000 C   0  0  0  0  0  0  0  0  0  0  0  0
   -1.3625   -4.4000    0.0000 O   0  0  0  0  0  0  0  0  0  0  0  0
    5.7917   -2.7542    0.0000 C   0  0  0  0  0  0  0  0  0  0  0  0
    0.7792   -3.1667    0.0000 C   0  0  0  0  0  0  0  0  0  0  0  0
    0.0667   -1.9250    0.0000 C   0  0  0  0  0  0  0  0  0  0  0  0
    5.7917   -1.9292    0.0000 C   0  0  0  0  0  0  0  0  0  0  0  0
    5.0792   -3.1667    0.0000 C   0  0  0  0  0  0  0  0  0  0  0  0
    6.5125   -3.1667    0.0000 Cl  0  0  0  0  0  0  0  0  0  0  0  0
  2  1  1  0  0  0  0
  3  1  1  0  0  0  0
  4  8  1  0  0  0  0
  5  2  1  0  0  0  0
  6  2  2  0  0  0  0
  7  3  1  0  0  0  0
  8 14  1  0  0  0  0
  9  3  2  0  0  0  0
 10  4  2  0  0  0  0
 11  7  2  0  0  0  0
 12  7  1  0  0  0  0
 13 18  1  0  0  0  0
 14 19  2  0  0  0  0
 15  5  1  0  0  0  0
 16  4  1  0  0  0  0
 17 21  1  0  0  0  0
 18 15  2  0  0  0  0
 19 15  1  0  0  0  0
 20 11  1  0  0  0  0
 21 12  2  0  0  0  0
 22 17  1  0  0  0  0
 20 17  2  0  0  0  0
  8 13  2  0  0  0  0
M  END
>  <ID> (7006766)
7006766

>  <Supplier> (7006766)
ChemBridge

>  <clogP> (7006766)
3.430000000000000e+000

>  <RB> (7006766)
3

>  <tPSA> (7006766)
7.843000000000001e+001

>  <Hacc> (7006766)
3

>  <Hdon> (7006766)
3

>  <LogSw> (7006766)
-4.570000000000000e+000

>  <Group> (7006766)
1

>  <Core> (7006766)
071

$$$$
5623431
  -ISIS-  03310818222D

 23 24  0  0  0  0  0  0  0  0999 V2000
   -1.0958    1.0458    0.0000 C   0  0  0  0  0  0  0  0  0  0  0  0
   -1.0958    1.7958    0.0000 C   0  0  0  0  0  0  0  0  0  0  0  0
   -0.4458    0.6625    0.0000 C   0  0  0  0  0  0  0  0  0  0  0  0
   -1.7458    0.6625    0.0000 C   0  0  0  0  0  0  0  0  0  0  0  0
    0.2000    1.7958    0.0000 C   0  0  0  0  0  0  0  0  0  0  0  0
    0.2000    1.0458    0.0000 C   0  0  0  0  0  0  0  0  0  0  0  0
   -2.3958    1.0333    0.0000 C   0  0  0  0  0  0  0  0  0  0  0  0
   -1.7458    2.1708    0.0000 C   0  0  0  0  0  0  0  0  0  0  0  0
   -2.4000    1.7958    0.0000 C   0  0  0  0  0  0  0  0  0  0  0  0
    0.8500    2.1708    0.0000 N   0  0  0  0  0  0  0  0  0  0  0  0
   -0.4458    2.1708    0.0000 C   0  0  0  0  0  0  0  0  0  0  0  0
    0.8500    2.9208    0.0000 C   0  0  0  0  0  0  0  0  0  0  0  0
    0.2000    3.2958    0.0000 O   0  0  0  0  0  0  0  0  0  0  0  0
   -0.4333   -0.0792    0.0000 N   0  0  0  0  0  0  0  0  0  0  0  0
   -3.0458    0.6500    0.0000 O   0  0  0  0  0  0  0  0  0  0  0  0
   -3.0500    2.1625    0.0000 O   0  0  0  0  0  0  0  0  0  0  0  0
    1.5000    3.3000    0.0000 C   0  0  0  0  0  0  0  0  0  0  0  0
    0.2000   -0.4500    0.0000 C   0  0  0  0  0  0  0  0  0  0  0  0
   -3.7000    1.7833    0.0000 C   0  0  0  0  0  0  0  0  0  0  0  0
   -3.7000    1.0333    0.0000 C   0  0  0  0  0  0  0  0  0  0  0  0
    0.8500   -0.0667    0.0000 C   0  0  0  0  0  0  0  0  0  0  0  0
    1.5000   -0.4500    0.0000 C   0  0  0  0  0  0  0  0  0  0  0  0
    2.1500   -0.0667    0.0000 C   0  0  0  0  0  0  0  0  0  0  0  0
  2  1  1  0  0  0  0
  3  1  2  0  0  0  0
  4  1  1  0  0  0  0
  5  6  2  0  0  0  0
  6  3  1  0  0  0  0
  7  4  2  0  0  0  0
  8  2  1  0  0  0  0
  9  7  1  0  0  0  0
 10  5  1  0  0  0  0
 11  2  2  0  0  0  0
 12 10  1  0  0  0  0
 13 12  2  0  0  0  0
 14  3  1  0  0  0  0
 15  7  1  0  0  0  0
 16  9  1  0  0  0  0
 17 12  1  0  0  0  0
 18 14  1  0  0  0  0
 19 16  1  0  0  0  0
 20 15  1  0  0  0  0
 21 18  1  0  0  0  0
 22 21  1  0  0  0  0
 23 22  1  0  0  0  0
 11  5  1  0  0  0  0
  8  9  2  0  0  0  0
M  END
>  <ID> (5623431)
5623431

>  <Supplier> (5623431)
ChemBridge

>  <clogP> (5623431)
3.140000000000000e+000

>  <RB> (5623431)
3

>  <tPSA> (5623431)
5.959000000000000e+001

>  <Hacc> (5623431)
3

>  <Hdon> (5623431)
2

>  <LogSw> (5623431)
-4.189000000000000e+000

>  <Group> (5623431)
3

$$$$
5623436
  -ISIS-  03310818222D

 22 24  0  0  0  0  0  0  0  0999 V2000
   -1.3500    0.0000    0.0000 N   0  0  3  0  0  0  0  0  0  0  0  0
   -0.6333    1.0958    0.0000 C   0  0  0  0  0  0  0  0  0  0  0  0
    0.6792   -0.5292    0.0000 C   0  0  0  0  0  0  0  0  0  0  0  0
   -0.5333   -1.0000    0.0000 C   0  0  0  0  0  0  0  0  0  0  0  0
    0.6000    0.7333    0.0000 C   0  0  0  0  0  0  0  0  0  0  0  0
   -2.6708    0.0000    0.0000 C   0  0  0  0  0  0  0  0  0  0  0  0
    1.8000   -1.2292    0.0000 N   0  0  0  0  0  0  0  0  0  0  0  0
   -1.0708    2.3125    0.0000 O   0  0  0  0  0  0  0  0  0  0  0  0
   -0.8625   -2.3000    0.0000 O   0  0  0  0  0  0  0  0  0  0  0  0
   -3.3208   -1.1292    0.0000 C   0  0  0  0  0  0  0  0  0  0  0  0
    2.9292   -0.6000    0.0000 C   0  0  0  0  0  0  0  0  0  0  0  0
   -2.6708   -2.2667    0.0000 O   0  0  0  0  0  0  0  0  0  0  0  0
   -3.3208    1.1458    0.0000 C   0  0  0  0  0  0  0  0  0  0  0  0
   -4.6125   -1.1292    0.0000 C   0  0  0  0  0  0  0  0  0  0  0  0
    2.9292    0.7000    0.0000 C   0  0  0  0  0  0  0  0  0  0  0  0
    4.0500   -1.3000    0.0000 C   0  0  0  0  0  0  0  0  0  0  0  0
   -3.4125   -3.4500    0.0000 C   0  0  0  0  0  0  0  0  0  0  0  0
   -4.6458    1.1458    0.0000 C   0  0  0  0  0  0  0  0  0  0  0  0
   -5.2708    0.0000    0.0000 C   0  0  0  0  0  0  0  0  0  0  0  0
    5.2000   -0.6292    0.0000 C   0  0  0  0  0  0  0  0  0  0  0  0
    4.1000    1.3208    0.0000 C   0  0  0  0  0  0  0  0  0  0  0  0
    5.2000    0.6625    0.0000 C   0  0  0  0  0  0  0  0  0  0  0  0
  2  1  1  0  0  0  0
  3  4  1  0  0  0  0
  4  1  1  0  0  0  0
  5  2  1  0  0  0  0
  6  1  1  0  0  0  0
  7  3  1  0  0  0  0
  8  2  2  0  0  0  0
  9  4  2  0  0  0  0
 10  6  2  0  0  0  0
 11  7  1  0  0  0  0
 12 10  1  0  0  0  0
 13  6  1  0  0  0  0
 14 10  1  0  0  0  0
 15 11  2  0  0  0  0
 16 11  1  0  0  0  0
 17 12  1  0  0  0  0
 18 13  2  0  0  0  0
 19 18  1  0  0  0  0
 20 16  2  0  0  0  0
 21 15  1  0  0  0  0
 22 20  1  0  0  0  0
  5  3  2  0  0  0  0
 19 14  2  0  0  0  0
 22 21  2  0  0  0  0
M  END
>  <ID> (5623436)
5623436

>  <Supplier> (5623436)
ChemBridge

>  <clogP> (5623436)
3.050000000000000e+000

>  <RB> (5623436)
3

>  <tPSA> (5623436)
5.863999999999998e+001

>  <Hacc> (5623436)
3

>  <Hdon> (5623436)
1

>  <LogSw> (5623436)
-3.951000000000000e+000

>  <Group> (5623436)
2

$$$$
5623437
  -ISIS-  03310818222D

 23 25  0  0  0  0  0  0  0  0999 V2000
    4.6167   -1.7167    0.0000 N   0  0  3  0  0  0  0  0  0  0  0  0
    3.8875   -1.8167    0.0000 C   0  0  0  0  0  0  0  0  0  0  0  0
    4.7542   -0.9792    0.0000 C   0  0  0  0  0  0  0  0  0  0  0  0
    3.5542   -1.1500    0.0000 N   0  0  0  0  0  0  0  0  0  0  0  0
    4.0875   -0.6292    0.0000 N   0  0  0  0  0  0  0  0  0  0  0  0
    5.1375   -2.2542    0.0000 N   0  0  0  0  0  0  0  0  0  0  0  0
    5.8667   -2.0792    0.0000 C   0  0  0  0  0  0  0  0  0  0  0  0
    3.5375   -2.4792    0.0000 C   0  0  0  0  0  0  0  0  0  0  0  0
    7.1167   -2.4375    0.0000 C   0  0  0  0  0  0  0  0  0  0  0  0
    6.3875   -2.6167    0.0000 C   0  0  0  0  0  0  0  0  0  0  0  0
    5.4292   -0.6500    0.0000 S   0  0  0  0  0  0  0  0  0  0  0  0
    7.6375   -2.9792    0.0000 C   0  0  0  0  0  0  0  0  0  0  0  0
    6.1875   -3.3375    0.0000 C   0  0  0  0  0  0  0  0  0  0  0  0
    2.7875   -2.5042    0.0000 C   0  0  0  0  0  0  0  0  0  0  0  0
    3.9375   -3.1167    0.0000 C   0  0  0  0  0  0  0  0  0  0  0  0
    7.4292   -3.7000    0.0000 C   0  0  0  0  0  0  0  0  0  0  0  0
    8.3667   -2.7875    0.0000 C   0  0  0  0  0  0  0  0  0  0  0  0
    3.5875   -3.7792    0.0000 C   0  0  0  0  0  0  0  0  0  0  0  0
    2.4375   -3.1792    0.0000 C   0  0  0  0  0  0  0  0  0  0  0  0
    8.8875   -3.3292    0.0000 C   0  0  0  0  0  0  0  0  0  0  0  0
    7.9500   -4.2375    0.0000 C   0  0  0  0  0  0  0  0  0  0  0  0
    2.8375   -3.8042    0.0000 C   0  0  0  0  0  0  0  0  0  0  0  0
    8.6792   -4.0542    0.0000 C   0  0  0  0  0  0  0  0  0  0  0  0
  2  1  1  0  0  0  0
  3  1  1  0  0  0  0
  4  2  2  0  0  0  0
  5  3  2  0  0  0  0
  6  1  1  0  0  0  0
  7  6  2  0  0  0  0
  8  2  1  0  0  0  0
  9 10  2  0  0  0  0
 10  7  1  0  0  0  0
 11  3  1  0  0  0  0
 12  9  1  0  0  0  0
 13 10  1  0  0  0  0
 14  8  1  0  0  0  0
 15  8  2  0  0  0  0
 16 12  1  0  0  0  0
 17 12  2  0  0  0  0
 18 15  1  0  0  0  0
 19 14  2  0  0  0  0
 20 17  1  0  0  0  0
 21 16  2  0  0  0  0
 22 18  2  0  0  0  0
 23 20  2  0  0  0  0
  4  5  1  0  0  0  0
 19 22  1  0  0  0  0
 21 23  1  0  0  0  0
M  END
>  <ID> (5623437)
5623437

>  <Supplier> (5623437)
ChemBridge

>  <clogP> (5623437)
4.520000000000000e+000

>  <RB> (5623437)
4

>  <tPSA> (5623437)
4.306999999999999e+001

>  <Hacc> (5623437)
4

>  <Hdon> (5623437)
0

>  <LogSw> (5623437)
-5.396999999999999e+000

>  <Group> (5623437)
2

>  <Core> (5623437)
292

$$$$
9025193
  -ISIS-  03310818282D

 25 26  0  0  0  0  0  0  0  0999 V2000
    3.6292    2.9708    0.0000 S   0  0  3  0  0  0  0  0  0  0  0  0
    4.2792    2.5958    0.0000 C   0  0  0  0  0  0  0  0  0  0  0  0
    4.2792    1.8458    0.0000 C   0  0  0  0  0  0  0  0  0  0  0  0
    3.1000    2.4458    0.0000 N   0  0  0  0  0  0  0  0  0  0  0  0
    4.9292    2.9708    0.0000 C   0  0  0  0  0  0  0  0  0  0  0  0
    0.9250    3.0250    0.0000 N   0  0  0  0  0  0  0  0  0  0  0  0
    1.1167    2.3000    0.0000 C   0  0  3  0  0  0  0  0  0  0  0  0
    1.4542    3.5583    0.0000 C   0  0  3  0  0  0  0  0  0  0  0  0
    4.9292    1.4708    0.0000 C   0  0  0  0  0  0  0  0  0  0  0  0
    2.3750    2.6458    0.0000 C   0  0  3  0  0  0  0  0  0  0  0  0
    4.0542    3.5875    0.0000 O   0  0  0  0  0  0  0  0  0  0  0  0
    3.0542    3.4583    0.0000 O   0  0  0  0  0  0  0  0  0  0  0  0
    5.5792    2.5958    0.0000 C   0  0  0  0  0  0  0  0  0  0  0  0
    5.5792    1.8458    0.0000 C   0  0  0  0  0  0  0  0  0  0  0  0
    1.8417    2.1083    0.0000 C   0  0  0  0  0  0  0  0  0  0  0  0
    2.1792    3.3625    0.0000 C   0  0  0  0  0  0  0  0  0  0  0  0
    4.9292    3.7208    0.0000 O   0  0  0  0  0  0  0  0  0  0  0  0
    4.9292    0.7208    0.0000 O   0  0  0  0  0  0  0  0  0  0  0  0
    1.7667    4.2292    0.0000 C   0  0  0  0  0  0  0  0  0  0  0  0
    0.8417    3.9833    0.0000 C   0  0  0  0  0  0  0  0  0  0  0  0
    0.3667    2.2333    0.0000 C   0  0  0  0  0  0  0  0  0  0  0  0
    1.0542    1.5583    0.0000 C   0  0  0  0  0  0  0  0  0  0  0  0
    6.2292    1.4708    0.0000 C   0  0  0  0  0  0  0  0  0  0  0  0
    5.5792    4.0917    0.0000 C   0  0  0  0  0  0  0  0  0  0  0  0
    4.2792    0.3458    0.0000 C   0  0  0  0  0  0  0  0  0  0  0  0
  2  1  1  0  0  0  0
  3  2  1  0  0  0  0
  4  1  1  0  0  0  0
  5  2  2  0  0  0  0
  6  8  1  0  0  0  0
  7 15  1  0  0  0  0
  8 16  1  0  0  0  0
  9  3  2  0  0  0  0
 10  4  1  0  0  0  0
 11  1  2  0  0  0  0
 12  1  2  0  0  0  0
 13  5  1  0  0  0  0
 14 13  2  0  0  0  0
 15 10  1  0  0  0  0
 16 10  1  0  0  0  0
 17  5  1  0  0  0  0
 18  9  1  0  0  0  0
 19  8  1  0  0  0  0
 20  8  1  0  0  0  0
 21  7  1  0  0  0  0
 22  7  1  0  0  0  0
 23 14  1  0  0  0  0
 24 17  1  0  0  0  0
 25 18  1  0  0  0  0
  7  6  1  0  0  0  0
  9 14  1  0  0  0  0
M  END
>  <ID> (9025193)
9025193

>  <Supplier> (9025193)
ChemBridge

>  <clogP> (9025193)
2.959000000000000e+000

>  <RB> (9025193)
2

>  <tPSA> (9025193)
7.666000000000000e+001

>  <Hacc> (9025193)
6

>  <Hdon> (9025193)
2

>  <LogSw> (9025193)
-3.420000000000000e+000

>  <Group> (9025193)
2

$$$$
7737159
  -ISIS-  03310818262D

 24 26  0  0  0  0  0  0  0  0999 V2000
    3.5250   -1.2250    0.0000 N   0  0  3  0  0  0  0  0  0  0  0  0
    3.9375   -2.4917    0.0000 C   0  0  0  0  0  0  0  0  0  0  0  0
    2.8625   -1.7042    0.0000 C   0  0  0  0  0  0  0  0  0  0  0  0
    4.1917   -1.7042    0.0000 C   0  0  0  0  0  0  0  0  0  0  0  0
    3.1125   -2.4917    0.0000 C   0  0  0  0  0  0  0  0  0  0  0  0
    4.4250   -3.1625    0.0000 C   0  0  0  0  0  0  0  0  0  0  0  0
    4.0875   -3.9167    0.0000 C   0  0  0  0  0  0  0  0  0  0  0  0
    3.5250   -0.4000    0.0000 C   0  0  0  0  0  0  0  0  0  0  0  0
    4.5667   -4.5750    0.0000 C   0  0  0  0  0  0  0  0  0  0  0  0
    5.0542   -5.2417    0.0000 N   0  0  0  0  0  0  0  0  0  0  0  0
    3.2667   -3.9917    0.0000 C   0  0  0  0  0  0  0  0  0  0  0  0
    2.8125    0.0125    0.0000 N   0  0  0  0  0  0  0  0  0  0  0  0
    2.9292   -4.7542    0.0000 C   0  0  0  0  0  0  0  0  0  0  0  0
    2.1042   -4.8375    0.0000 C   0  0  0  0  0  0  0  0  0  0  0  0
    2.0792   -1.4542    0.0000 C   0  0  0  0  0  0  0  0  0  0  0  0
    4.9792   -1.4542    0.0000 C   0  0  0  0  0  0  0  0  0  0  0  0
    1.7625   -5.5917    0.0000 Br  0  0  0  0  0  0  0  0  0  0  0  0
    2.7792   -3.3292    0.0000 C   0  0  0  0  0  0  0  0  0  0  0  0
    4.2417    0.0208    0.0000 C   0  0  0  0  0  0  0  0  0  0  0  0
    1.9542   -3.4042    0.0000 C   0  0  0  0  0  0  0  0  0  0  0  0
    2.8042    0.8333    0.0000 C   0  0  0  0  0  0  0  0  0  0  0  0
    1.6167   -4.1667    0.0000 C   0  0  0  0  0  0  0  0  0  0  0  0
    4.2417    0.8375    0.0000 C   0  0  0  0  0  0  0  0  0  0  0  0
    3.5250    1.2500    0.0000 C   0  0  0  0  0  0  0  0  0  0  0  0
  2  4  2  0  0  0  0
  3  1  1  0  0  0  0
  4  1  1  0  0  0  0
  5  3  2  0  0  0  0
  6  2  1  0  0  0  0
  7  6  2  0  0  0  0
  8  1  1  0  0  0  0
  9  7  1  0  0  0  0
 10  9  3  0  0  0  0
 11  7  1  0  0  0  0
 12  8  1  0  0  0  0
 13 11  1  0  0  0  0
 14 13  2  0  0  0  0
 15  3  1  0  0  0  0
 16  4  1  0  0  0  0
 17 14  1  0  0  0  0
 18 11  2  0  0  0  0
 19  8  2  0  0  0  0
 20 18  1  0  0  0  0
 21 12  2  0  0  0  0
 22 20  2  0  0  0  0
 23 19  1  0  0  0  0
 24 23  2  0  0  0  0
  2  5  1  0  0  0  0
 24 21  1  0  0  0  0
 14 22  1  0  0  0  0
M  END
>  <ID> (7737159)
7737159

>  <Supplier> (7737159)
ChemBridge

>  <clogP> (7737159)
5.056000000000000e+000

>  <RB> (7737159)
3

>  <tPSA> (7737159)
4.161000000000000e+001

>  <Hacc> (7737159)
3

>  <Hdon> (7737159)
0

>  <LogSw> (7737159)
-6.534000000000000e+000

>  <Group> (7737159)
1

>  <Core> (7737159)
110

$$$$
6146055
  -ISIS-  03310818232D

 21 23  0  0  0  0  0  0  0  0999 V2000
    4.5000   -0.1875    0.0000 C   0  0  0  0  0  0  0  0  0  0  0  0
    5.2042    0.2208    0.0000 O   0  0  0  0  0  0  0  0  0  0  0  0
    5.9167   -0.1875    0.0000 C   0  0  0  0  0  0  0  0  0  0  0  0
    4.5000   -1.0042    0.0000 C   0  0  0  0  0  0  0  0  0  0  0  0
    5.2042   -1.4167    0.0000 C   0  0  0  0  0  0  0  0  0  0  0  0
    3.7792    0.2208    0.0000 C   0  0  0  0  0  0  0  0  0  0  0  0
    5.9167   -1.0042    0.0000 C   0  0  0  0  0  0  0  0  0  0  0  0
    3.7792   -1.4167    0.0000 C   0  0  0  0  0  0  0  0  0  0  0  0
    3.0542   -0.1875    0.0000 C   0  0  0  0  0  0  0  0  0  0  0  0
    6.6500    0.2208    0.0000 O   0  0  0  0  0  0  0  0  0  0  0  0
    2.3500    0.2208    0.0000 O   0  0  0  0  0  0  0  0  0  0  0  0
    3.0542   -1.0042    0.0000 C   0  0  0  0  0  0  0  0  0  0  0  0
    0.9000    1.0458    0.0000 O   0  0  0  0  0  0  0  0  0  0  0  0
    0.9042    0.2125    0.0000 C   0  0  0  0  0  0  0  0  0  0  0  0
    1.6292   -0.1875    0.0000 C   0  0  0  0  0  0  0  0  0  0  0  0
    3.7792    1.0458    0.0000 C   0  0  0  0  0  0  0  0  0  0  0  0
    5.2042   -2.2500    0.0000 C   0  0  0  0  0  0  0  0  0  0  0  0
    6.6375   -1.4167    0.0000 C   0  0  0  0  0  0  0  0  0  0  0  0
    0.2000   -0.2000    0.0000 C   0  0  0  0  0  0  0  0  0  0  0  0
    5.9167   -2.6542    0.0000 C   0  0  0  0  0  0  0  0  0  0  0  0
    6.6375   -2.2500    0.0000 C   0  0  0  0  0  0  0  0  0  0  0  0
  2  1  1  0  0  0  0
  3  2  1  0  0  0  0
  4  1  1  0  0  0  0
  5  4  1  0  0  0  0
  6  1  2  0  0  0  0
  7  5  2  0  0  0  0
  8  4  2  0  0  0  0
  9  6  1  0  0  0  0
 10  3  2  0  0  0  0
 11  9  1  0  0  0  0
 12  9  2  0  0  0  0
 13 14  2  0  0  0  0
 14 15  1  0  0  0  0
 15 11  1  0  0  0  0
 16  6  1  0  0  0  0
 17  5  1  0  0  0  0
 18  7  1  0  0  0  0
 19 14  1  0  0  0  0
 20 17  2  0  0  0  0
 21 20  1  0  0  0  0
 12  8  1  0  0  0  0
  3  7  1  0  0  0  0
 21 18  2  0  0  0  0
M  END
>  <ID> (6146055)
6146055

>  <Supplier> (6146055)
ChemBridge

>  <clogP> (6146055)
2.970000000000000e+000

>  <RB> (6146055)
3

>  <tPSA> (6146055)
5.651000000000000e+001

>  <Hacc> (6146055)
4

>  <Hdon> (6146055)
0

>  <LogSw> (6146055)
-4.906000000000002e+000

>  <Group> (6146055)
3

>  <Core> (6146055)
358

$$$$
9082351
  -ISIS-  03310818292D

 24 24  0  0  0  0  0  0  0  0999 V2000
    4.2417   -3.8500    0.0000 C   0  0  0  0  0  0  0  0  0  0  0  0
    3.4167   -3.8500    0.0000 C   0  0  0  0  0  0  0  0  0  0  0  0
    4.7292   -4.5250    0.0000 O   0  0  0  0  0  0  0  0  0  0  0  0
    3.0042   -3.1292    0.0000 C   0  0  0  0  0  0  0  0  0  0  0  0
    4.7292   -3.1875    0.0000 C   0  0  0  0  0  0  0  0  0  0  0  0
    5.5167   -4.2542    0.0000 C   0  0  0  0  0  0  0  0  0  0  0  0
    5.5167   -3.4375    0.0000 C   0  0  0  0  0  0  0  0  0  0  0  0
    2.1792   -3.1292    0.0000 C   0  0  0  0  0  0  0  0  0  0  0  0
    3.0042   -4.5625    0.0000 C   0  0  0  0  0  0  0  0  0  0  0  0
    9.8625   -3.8917    0.0000 N   0  0  0  0  0  0  0  0  0  0  0  0
    1.7667   -3.8500    0.0000 C   0  0  0  0  0  0  0  0  0  0  0  0
    6.9292   -4.4125    0.0000 N   0  0  0  0  0  0  0  0  0  0  0  0
    3.4167   -2.4167    0.0000 Cl  0  0  0  0  0  0  0  0  0  0  0  0
    2.1792   -4.5625    0.0000 C   0  0  0  0  0  0  0  0  0  0  0  0
    0.9417   -3.8500    0.0000 Cl  0  0  0  0  0  0  0  0  0  0  0  0
    5.5125   -1.0917    0.0000 Cl  0  0  0  0  0  0  0  0  0  0  0  0
    5.6875   -2.0667    0.0000 Cl  0  0  0  0  0  0  0  0  0  0  0  0
    6.1875   -4.7542    0.0000 C   0  0  0  0  0  0  0  0  0  0  0  0
    9.2042   -3.4042    0.0000 C   0  0  0  0  0  0  0  0  0  0  0  0
    9.7792   -4.7167    0.0000 C   0  0  0  0  0  0  0  0  0  0  0  0
    7.6042   -4.9042    0.0000 C   0  0  0  0  0  0  0  0  0  0  0  0
    8.3542   -4.5625    0.0000 C   0  0  3  0  0  0  0  0  0  0  0  0
    8.4417   -3.7375    0.0000 C   0  0  0  0  0  0  0  0  0  0  0  0
    9.0250   -5.0417    0.0000 C   0  0  0  0  0  0  0  0  0  0  0  0
  2  1  1  0  0  0  0
  3  1  1  0  0  0  0
  4  2  2  0  0  0  0
  5  1  2  0  0  0  0
  6  3  1  0  0  0  0
  7  5  1  0  0  0  0
  8  4  1  0  0  0  0
  9  2  1  0  0  0  0
 10 20  1  0  0  0  0
 11 14  1  0  0  0  0
 12 18  1  0  0  0  0
 13  4  1  0  0  0  0
 14  9  2  0  0  0  0
 15 11  1  0  0  0  0
 18  6  1  0  0  0  0
 19 23  1  0  0  0  0
 20 24  1  0  0  0  0
 21 12  1  0  0  0  0
 22 21  1  0  0  0  0
 23 22  1  0  0  0  0
 24 22  1  0  0  0  0
  6  7  2  0  0  0  0
 11  8  2  0  0  0  0
 10 19  1  0  0  0  0
M  END
>  <ID> (9082351)
9082351

>  <Supplier> (9082351)
ChemBridge

>  <clogP> (9082351)
3.120000000000000e+000

>  <RB> (9082351)
5

>  <tPSA> (9082351)
3.720000000000000e+001

>  <Hacc> (9082351)
3

>  <Hdon> (9082351)
2

>  <LogSw> (9082351)
-4.706000000000000e+000

>  <Group> (9082351)
2

$$$$
9062743
  -ISIS-  03310818282D

 19 20  0  0  0  0  0  0  0  0999 V2000
    5.0042    2.4958    0.0000 O   0  0  0  0  0  0  0  0  0  0  0  0
    4.2917    1.5125    0.0000 N   0  0  0  0  0  0  0  0  0  0  0  0
    4.2917    2.2708    0.0000 C   0  0  0  0  0  0  0  0  0  0  0  0
    5.0042    1.2833    0.0000 N   0  0  0  0  0  0  0  0  0  0  0  0
    5.4500    1.8958    0.0000 C   0  0  0  0  0  0  0  0  0  0  0  0
    1.7042    2.5333    0.0000 C   0  0  0  0  0  0  0  0  0  0  0  0
    2.3917    2.8375    0.0000 C   0  0  0  0  0  0  0  0  0  0  0  0
    3.6875    2.7083    0.0000 S   0  0  0  0  0  0  0  0  0  0  0  0
    1.1042    2.9833    0.0000 O   0  0  0  0  0  0  0  0  0  0  0  0
    6.2000    1.8958    0.0000 C   0  0  0  0  0  0  0  0  0  0  0  0
    6.5750    1.2375    0.0000 O   0  0  0  0  0  0  0  0  0  0  0  0
    3.0000    2.3958    0.0000 C   0  0  0  0  0  0  0  0  0  0  0  0
    1.6292    1.7875    0.0000 O   0  0  0  0  0  0  0  0  0  0  0  0
    7.3250    1.2375    0.0000 C   0  0  0  0  0  0  0  0  0  0  0  0
    7.7000    0.5875    0.0000 C   0  0  0  0  0  0  0  0  0  0  0  0
    7.7000    1.8958    0.0000 C   0  0  0  0  0  0  0  0  0  0  0  0
    8.4500    1.8958    0.0000 C   0  0  0  0  0  0  0  0  0  0  0  0
    8.4500    0.5875    0.0000 C   0  0  0  0  0  0  0  0  0  0  0  0
    8.8250    1.2375    0.0000 C   0  0  0  0  0  0  0  0  0  0  0  0
  2  3  2  0  0  0  0
  3  1  1  0  0  0  0
  4  5  2  0  0  0  0
  5  1  1  0  0  0  0
  6  7  1  0  0  0  0
  7 12  1  0  0  0  0
  8  3  1  0  0  0  0
  9  6  2  0  0  0  0
 10  5  1  0  0  0  0
 11 10  1  0  0  0  0
 12  8  1  0  0  0  0
 13  6  1  0  0  0  0
 14 11  1  0  0  0  0
 15 14  1  0  0  0  0
 16 14  2  0  0  0  0
 17 16  1  0  0  0  0
 18 15  2  0  0  0  0
 19 17  2  0  0  0  0
  4  2  1  0  0  0  0
 18 19  1  0  0  0  0
M  END
>  <ID> (9062743)
9062743

>  <Supplier> (9062743)
ChemBridge

>  <clogP> (9062743)
4.720000000000000e-001

>  <RB> (9062743)
7

>  <tPSA> (9062743)
8.545000000000000e+001

>  <Hacc> (9062743)
6

>  <Hdon> (9062743)
1

>  <LogSw> (9062743)
-2.150000000000000e+000

>  <Group> (9062743)
2

>  <Core> (9062743)
033

$$$$
6115714
  -ISIS-  03310818232D

 18 19  0  0  0  0  0  0  0  0999 V2000
    0.1667    1.4125    0.0000 C   0  0  0  0  0  0  0  0  0  0  0  0
   -1.1500    0.6333    0.0000 C   0  0  3  0  0  0  0  0  0  0  0  0
    1.4667    0.6625    0.0000 N   0  0  0  0  0  0  0  0  0  0  0  0
    2.7792    1.4125    0.0000 C   0  0  0  0  0  0  0  0  0  0  0  0
   -1.1500   -0.8875    0.0000 C   0  0  3  0  0  0  0  0  0  0  0  0
    2.7792    2.9208    0.0000 S   0  0  0  0  0  0  0  0  0  0  0  0
    5.1000    2.1958    0.0000 N   0  0  0  0  0  0  0  0  0  0  0  0
    0.1667   -1.6792    0.0000 C   0  0  0  0  0  0  0  0  0  0  0  0
    4.2167    3.3833    0.0000 C   0  0  0  0  0  0  0  0  0  0  0  0
   -2.4708   -1.6500    0.0000 C   0  0  0  0  0  0  0  0  0  0  0  0
   -3.7833    0.6125    0.0000 C   0  0  0  0  0  0  0  0  0  0  0  0
   -3.7833   -0.8792    0.0000 C   0  0  0  0  0  0  0  0  0  0  0  0
    4.2167    0.9500    0.0000 C   0  0  0  0  0  0  0  0  0  0  0  0
   -2.4708    1.3833    0.0000 C   0  0  0  0  0  0  0  0  0  0  0  0
    0.1542    2.9583    0.0000 O   0  0  0  0  0  0  0  0  0  0  0  0
    0.1667   -3.1167    0.0000 O   0  0  0  0  0  0  0  0  0  0  0  0
   -5.1208    1.3500    0.0000 Cl  0  0  0  0  0  0  0  0  0  0  0  0
    1.4792   -0.9042    0.0000 O   0  0  0  0  0  0  0  0  0  0  0  0
  2  1  1  0  0  0  0
  3  1  1  0  0  0  0
  4  3  1  0  0  0  0
  5  2  1  0  0  0  0
  6  4  1  0  0  0  0
  7 13  1  0  0  0  0
  8  5  1  0  0  0  0
  9  6  1  0  0  0  0
 10  5  1  0  0  0  0
 11 14  1  0  0  0  0
 12 11  2  0  0  0  0
 13  4  2  0  0  0  0
 14  2  1  0  0  0  0
 15  1  2  0  0  0  0
 16  8  2  0  0  0  0
 17 11  1  0  0  0  0
 18  8  1  0  0  0  0
  7  9  2  0  0  0  0
 10 12  1  0  0  0  0
M  END
>  <ID> (6115714)
6115714

>  <Supplier> (6115714)
ChemBridge

>  <clogP> (6115714)
1.610000000000000e+000

>  <RB> (6115714)
3

>  <tPSA> (6115714)
7.929000000000001e+001

>  <Hacc> (6115714)
4

>  <Hdon> (6115714)
2

>  <LogSw> (6115714)
-2.666000000000000e+000

>  <Group> (6115714)
2

$$$$
5581560
  -ISIS-  03310818222D

 27 29  0  0  0  0  0  0  0  0999 V2000
   -3.3458    0.4125    0.0000 N   0  0  3  0  0  0  0  0  0  0  0  0
   -3.4708   -0.3292    0.0000 C   0  0  0  0  0  0  0  0  0  0  0  0
   -2.6208    0.5000    0.0000 C   0  0  0  0  0  0  0  0  0  0  0  0
   -2.3125   -0.1500    0.0000 C   0  0  0  0  0  0  0  0  0  0  0  0
   -2.8333   -0.6500    0.0000 S   0  0  0  0  0  0  0  0  0  0  0  0
   -1.5958   -0.2000    0.0000 C   0  0  0  0  0  0  0  0  0  0  0  0
   -3.8333    0.9125    0.0000 C   0  0  0  0  0  0  0  0  0  0  0  0
   -4.1333   -0.6500    0.0000 S   0  0  0  0  0  0  0  0  0  0  0  0
   -4.5333    0.7333    0.0000 C   0  0  0  0  0  0  0  0  0  0  0  0
   -2.3000    1.1208    0.0000 O   0  0  0  0  0  0  0  0  0  0  0  0
   -5.0833    1.2458    0.0000 O   0  0  0  0  0  0  0  0  0  0  0  0
   -1.1958    0.4000    0.0000 C   0  0  0  0  0  0  0  0  0  0  0  0
   -0.0333    2.2333    0.0000 O   0  0  0  0  0  0  0  0  0  0  0  0
   -0.4333    1.6000    0.0000 C   0  0  0  0  0  0  0  0  0  0  0  0
    1.8000    0.3125    0.0000 C   0  0  0  0  0  0  0  0  0  0  0  0
    1.0667    1.5625    0.0000 C   0  0  0  0  0  0  0  0  0  0  0  0
   -4.6833    0.0333    0.0000 O   0  0  0  0  0  0  0  0  0  0  0  0
    0.7167    2.2083    0.0000 C   0  0  0  0  0  0  0  0  0  0  0  0
    2.1792   -0.3000    0.0000 Cl  0  0  0  0  0  0  0  0  0  0  0  0
   -0.4708    0.3500    0.0000 C   0  0  0  0  0  0  0  0  0  0  0  0
   -1.5458    1.0333    0.0000 C   0  0  0  0  0  0  0  0  0  0  0  0
   -1.1625    1.6500    0.0000 C   0  0  0  0  0  0  0  0  0  0  0  0
   -0.0708    0.9500    0.0000 C   0  0  0  0  0  0  0  0  0  0  0  0
    2.1542    0.9125    0.0000 C   0  0  0  0  0  0  0  0  0  0  0  0
    1.0667    0.3125    0.0000 C   0  0  0  0  0  0  0  0  0  0  0  0
    0.7042    0.9458    0.0000 C   0  0  0  0  0  0  0  0  0  0  0  0
    1.7792    1.5500    0.0000 C   0  0  0  0  0  0  0  0  0  0  0  0
  2  1  1  0  0  0  0
  3  1  1  0  0  0  0
  4  3  1  0  0  0  0
  5  2  1  0  0  0  0
  6  4  2  0  0  0  0
  7  1  1  0  0  0  0
  8  2  2  0  0  0  0
  9  7  1  0  0  0  0
 10  3  2  0  0  0  0
 11  9  2  0  0  0  0
 12  6  1  0  0  0  0
 13 14  1  0  0  0  0
 14 22  1  0  0  0  0
 15 24  2  0  0  0  0
 16 18  1  0  0  0  0
 17  9  1  0  0  0  0
 18 13  1  0  0  0  0
 19 15  1  0  0  0  0
 20 12  2  0  0  0  0
 21 12  1  0  0  0  0
 22 21  2  0  0  0  0
 23 20  1  0  0  0  0
 24 27  1  0  0  0  0
 25 26  2  0  0  0  0
 26 16  1  0  0  0  0
 27 16  2  0  0  0  0
  4  5  1  0  0  0  0
 14 23  2  0  0  0  0
 15 25  1  0  0  0  0
M  END
>  <ID> (5581560)
5581560

>  <Supplier> (5581560)
ChemBridge

>  <clogP> (5581560)
3.820000000000000e+000

>  <RB> (5581560)
6

>  <tPSA> (5581560)
6.683999999999999e+001

>  <Hacc> (5581560)
4

>  <Hdon> (5581560)
1

>  <LogSw> (5581560)
-5.523000000000000e+000

>  <Group> (5581560)
3

>  <Core> (5581560)
001

$$$$
7988540
  -ISIS-  03310818282D

 30 31  0  0  0  0  0  0  0  0999 V2000
    1.2792    0.4708    0.0000 S   0  0  3  0  0  0  0  0  0  0  0  0
    1.6542    1.1208    0.0000 N   0  0  3  0  0  0  0  0  0  0  0  0
    2.7792    1.7708    0.0000 C   0  0  0  0  0  0  0  0  0  0  0  0
    2.4042    1.1208    0.0000 C   0  0  3  0  0  0  0  0  0  0  0  0
    4.6542    2.4208    0.0000 C   0  0  0  0  0  0  0  0  0  0  0  0
    3.5292    1.7708    0.0000 N   0  0  0  0  0  0  0  0  0  0  0  0
    3.9042    2.4208    0.0000 C   0  0  0  0  0  0  0  0  0  0  0  0
    5.0292    1.7708    0.0000 C   0  0  0  0  0  0  0  0  0  0  0  0
    0.5542    0.6708    0.0000 O   0  0  0  0  0  0  0  0  0  0  0  0
    1.0292   -0.2292    0.0000 O   0  0  0  0  0  0  0  0  0  0  0  0
    1.2792    1.7708    0.0000 C   0  0  0  0  0  0  0  0  0  0  0  0
    2.4042    2.4208    0.0000 O   0  0  0  0  0  0  0  0  0  0  0  0
    4.6542    1.1208    0.0000 O   0  0  0  0  0  0  0  0  0  0  0  0
    5.7792    1.7708    0.0000 N   0  0  0  0  0  0  0  0  0  0  0  0
    1.6542    2.4208    0.0000 C   0  0  0  0  0  0  0  0  0  0  0  0
    0.5292    1.7708    0.0000 C   0  0  0  0  0  0  0  0  0  0  0  0
    1.9625    0.1583    0.0000 C   0  0  0  0  0  0  0  0  0  0  0  0
    0.1542    2.4208    0.0000 C   0  0  0  0  0  0  0  0  0  0  0  0
    1.2792    3.0708    0.0000 C   0  0  0  0  0  0  0  0  0  0  0  0
    0.5292    3.0708    0.0000 C   0  0  0  0  0  0  0  0  0  0  0  0
    2.7792    0.4708    0.0000 C   0  0  0  0  0  0  0  0  0  0  0  0
    5.0292    3.0708    0.0000 C   0  0  0  0  0  0  0  0  0  0  0  0
    3.5292    3.0708    0.0000 C   0  0  0  0  0  0  0  0  0  0  0  0
    7.2792    0.4708    0.0000 O   0  0  0  0  0  0  0  0  0  0  0  0
    6.1542    1.1208    0.0000 C   0  0  0  0  0  0  0  0  0  0  0  0
    6.9042    1.1208    0.0000 C   0  0  0  0  0  0  0  0  0  0  0  0
    0.1542    3.7208    0.0000 C   0  0  0  0  0  0  0  0  0  0  0  0
    8.0292    0.4708    0.0000 C   0  0  0  0  0  0  0  0  0  0  0  0
    4.6542    3.7208    0.0000 C   0  0  0  0  0  0  0  0  0  0  0  0
    3.9042    3.7208    0.0000 C   0  0  0  0  0  0  0  0  0  0  0  0
  2  1  1  0  0  0  0
  3  4  1  0  0  0  0
  4  2  1  0  0  0  0
  5  7  1  0  0  0  0
  6  3  1  0  0  0  0
  7  6  1  0  0  0  0
  8  5  1  0  0  0  0
  9  1  2  0  0  0  0
 10  1  2  0  0  0  0
 11  2  1  0  0  0  0
 12  3  2  0  0  0  0
 13  8  2  0  0  0  0
 14  8  1  0  0  0  0
 15 11  1  0  0  0  0
 16 11  2  0  0  0  0
 17  1  1  0  0  0  0
 18 16  1  0  0  0  0
 19 15  2  0  0  0  0
 20 18  2  0  0  0  0
 21  4  1  0  0  0  0
 22  5  2  0  0  0  0
 23  7  2  0  0  0  0
 24 26  1  0  0  0  0
 25 14  1  0  0  0  0
 26 25  1  0  0  0  0
 27 20  1  0  0  0  0
 28 24  1  0  0  0  0
 29 30  2  0  0  0  0
 30 23  1  0  0  0  0
 20 19  1  0  0  0  0
 22 29  1  0  0  0  0
M  END
>  <ID> (7988540)
7988540

>  <Supplier> (7988540)
ChemBridge

>  <clogP> (7988540)
2.393000000000000e+000

>  <RB> (7988540)
7

>  <tPSA> (7988540)
1.048100000000000e+002

>  <Hacc> (7988540)
5

>  <Hdon> (7988540)
2

>  <LogSw> (7988540)
-4.404000000000000e+000

>  <Group> (7988540)
1

>  <Core> (7988540)
555

$$$$
7988546
  -ISIS-  03310818282D

 26 28  0  0  0  0  0  0  0  0999 V2000
    5.5250    1.7208    0.0000 N   0  0  3  0  0  0  0  0  0  0  0  0
    4.3667    2.0958    0.0000 C   0  0  0  0  0  0  0  0  0  0  0  0
    5.0792    1.1083    0.0000 C   0  0  0  0  0  0  0  0  0  0  0  0
    5.0792    2.3333    0.0000 C   0  0  0  0  0  0  0  0  0  0  0  0
    4.3667    1.3458    0.0000 C   0  0  0  0  0  0  0  0  0  0  0  0
    3.7625    2.5333    0.0000 C   0  0  0  0  0  0  0  0  0  0  0  0
    3.0792    2.2333    0.0000 C   0  0  0  0  0  0  0  0  0  0  0  0
    6.2750    1.7208    0.0000 C   0  0  0  0  0  0  0  0  0  0  0  0
    2.4667    2.6708    0.0000 C   0  0  0  0  0  0  0  0  0  0  0  0
    1.8667    3.1083    0.0000 N   0  0  0  0  0  0  0  0  0  0  0  0
    0.8667   -0.1792    0.0000 N   0  0  0  0  0  0  0  0  0  0  0  0
    3.0000    1.4833    0.0000 C   0  0  0  0  0  0  0  0  0  0  0  0
    1.5500    0.1250    0.0000 C   0  0  0  0  0  0  0  0  0  0  0  0
    2.3167    1.1750    0.0000 C   0  0  0  0  0  0  0  0  0  0  0  0
    6.6500    1.0708    0.0000 C   0  0  0  0  0  0  0  0  0  0  0  0
    2.2375    0.4333    0.0000 C   0  0  0  0  0  0  0  0  0  0  0  0
    5.3167    0.3958    0.0000 C   0  0  0  0  0  0  0  0  0  0  0  0
    5.3167    3.0458    0.0000 C   0  0  0  0  0  0  0  0  0  0  0  0
    6.6500    2.3708    0.0000 C   0  0  0  0  0  0  0  0  0  0  0  0
    3.6042    1.0458    0.0000 C   0  0  0  0  0  0  0  0  0  0  0  0
    3.5292    0.2958    0.0000 C   0  0  0  0  0  0  0  0  0  0  0  0
    6.2750    0.4208    0.0000 C   0  0  0  0  0  0  0  0  0  0  0  0
    7.4000    1.0708    0.0000 C   0  0  0  0  0  0  0  0  0  0  0  0
    2.8417   -0.0125    0.0000 C   0  0  0  0  0  0  0  0  0  0  0  0
    7.4000    2.3708    0.0000 C   0  0  0  0  0  0  0  0  0  0  0  0
    7.7750    1.7208    0.0000 C   0  0  0  0  0  0  0  0  0  0  0  0
  2  4  2  0  0  0  0
  3  1  1  0  0  0  0
  4  1  1  0  0  0  0
  5  3  2  0  0  0  0
  6  2  1  0  0  0  0
  7  6  2  0  0  0  0
  8  1  1  0  0  0  0
  9  7  1  0  0  0  0
 10  9  3  0  0  0  0
 11 13  3  0  0  0  0
 12  7  1  0  0  0  0
 13 16  1  0  0  0  0
 14 12  2  0  0  0  0
 15  8  1  0  0  0  0
 16 14  1  0  0  0  0
 17  3  1  0  0  0  0
 18  4  1  0  0  0  0
 19  8  2  0  0  0  0
 20 12  1  0  0  0  0
 21 20  2  0  0  0  0
 22 15  1  0  0  0  0
 23 15  2  0  0  0  0
 24 21  1  0  0  0  0
 25 19  1  0  0  0  0
 26 25  2  0  0  0  0
  5  2  1  0  0  0  0
 23 26  1  0  0  0  0
 16 24  2  0  0  0  0
M  END
>  <ID> (7988546)
7988546

>  <Supplier> (7988546)
ChemBridge

>  <clogP> (7988546)
5.338000000000000e+000

>  <RB> (7988546)
3

>  <tPSA> (7988546)
5.251000000000001e+001

>  <Hacc> (7988546)
2

>  <Hdon> (7988546)
0

>  <LogSw> (7988546)
-6.484000000000000e+000

>  <Group> (7988546)
1

>  <Core> (7988546)
110

$$$$
7988547
  -ISIS-  03310818282D

 28 30  0  0  0  0  0  0  0  0999 V2000
    4.3292    3.1083    0.0000 C   0  0  0  0  0  0  0  0  0  0  0  0
    5.0792    3.1083    0.0000 C   0  0  0  0  0  0  0  0  0  0  0  0
    3.9542    3.7583    0.0000 C   0  0  3  0  0  0  0  0  0  0  0  0
    5.0792    4.4000    0.0000 C   0  0  0  0  0  0  0  0  0  0  0  0
    5.4542    3.7583    0.0000 N   0  0  0  0  0  0  0  0  0  0  0  0
    4.3292    4.4000    0.0000 N   0  0  0  0  0  0  0  0  0  0  0  0
    3.9542    2.4583    0.0000 C   0  0  0  0  0  0  0  0  0  0  0  0
    3.2042    3.7583    0.0000 C   0  0  0  0  0  0  0  0  0  0  0  0
    5.4542    5.0417    0.0000 O   0  0  0  0  0  0  0  0  0  0  0  0
    4.3292    1.8083    0.0000 O   0  0  0  0  0  0  0  0  0  0  0  0
    2.8292    4.4000    0.0000 C   0  0  0  0  0  0  0  0  0  0  0  0
    2.8292    3.1083    0.0000 C   0  0  0  0  0  0  0  0  0  0  0  0
    5.4542    2.4583    0.0000 C   0  0  0  0  0  0  0  0  0  0  0  0
    6.2042    2.4583    0.0000 S   0  0  0  0  0  0  0  0  0  0  0  0
    3.2042    2.4583    0.0000 O   0  0  0  0  0  0  0  0  0  0  0  0
    1.7042    3.7583    0.0000 C   0  0  0  0  0  0  0  0  0  0  0  0
    2.0792    4.4000    0.0000 C   0  0  0  0  0  0  0  0  0  0  0  0
    2.0792    3.1083    0.0000 C   0  0  0  0  0  0  0  0  0  0  0  0
    0.9542    3.7583    0.0000 Cl  0  0  0  0  0  0  0  0  0  0  0  0
    7.3292    1.8083    0.0000 C   0  0  0  0  0  0  0  0  0  0  0  0
    6.5792    1.8083    0.0000 C   0  0  0  0  0  0  0  0  0  0  0  0
    2.8292    1.8083    0.0000 C   0  0  0  0  0  0  0  0  0  0  0  0
    7.7042    1.1583    0.0000 C   0  0  0  0  0  0  0  0  0  0  0  0
    7.7042    2.4583    0.0000 C   0  0  0  0  0  0  0  0  0  0  0  0
    2.0792    1.8083    0.0000 C   0  0  0  0  0  0  0  0  0  0  0  0
    8.4542    1.1583    0.0000 C   0  0  0  0  0  0  0  0  0  0  0  0
    8.4542    2.4583    0.0000 C   0  0  0  0  0  0  0  0  0  0  0  0
    8.8292    1.8083    0.0000 C   0  0  0  0  0  0  0  0  0  0  0  0
  2  1  2  0  0  0  0
  3  1  1  0  0  0  0
  4  6  1  0  0  0  0
  5  2  1  0  0  0  0
  6  3  1  0  0  0  0
  7  1  1  0  0  0  0
  8  3  1  0  0  0  0
  9  4  2  0  0  0  0
 10  7  2  0  0  0  0
 11  8  2  0  0  0  0
 12  8  1  0  0  0  0
 13  2  1  0  0  0  0
 14 13  1  0  0  0  0
 15  7  1  0  0  0  0
 16 18  1  0  0  0  0
 17 11  1  0  0  0  0
 18 12  2  0  0  0  0
 19 16  1  0  0  0  0
 20 21  1  0  0  0  0
 21 14  1  0  0  0  0
 22 15  1  0  0  0  0
 23 20  1  0  0  0  0
 24 20  2  0  0  0  0
 25 22  1  0  0  0  0
 26 23  2  0  0  0  0
 27 24  1  0  0  0  0
 28 27  2  0  0  0  0
  5  4  1  0  0  0  0
 16 17  2  0  0  0  0
 28 26  1  0  0  0  0
M  END
>  <ID> (7988547)
7988547

>  <Supplier> (7988547)
ChemBridge

>  <clogP> (7988547)
5.436000000000008e+000

>  <RB> (7988547)
6

>  <tPSA> (7988547)
6.743000000000001e+001

>  <Hacc> (7988547)
3

>  <Hdon> (7988547)
2

>  <LogSw> (7988547)
-6.882000000000000e+000

>  <Group> (7988547)
1

>  <Core> (7988547)
072

$$$$
7988544
  -ISIS-  03310818282D

 29 32  0  0  0  0  0  0  0  0999 V2000
    3.9417    2.1333    0.0000 N   0  0  3  0  0  0  0  0  0  0  0  0
    3.1292    3.0333    0.0000 N   0  0  0  0  0  0  0  0  0  0  0  0
    3.8625    2.8833    0.0000 C   0  0  0  0  0  0  0  0  0  0  0  0
    3.2542    1.8333    0.0000 N   0  0  0  0  0  0  0  0  0  0  0  0
    2.7542    2.3958    0.0000 C   0  0  0  0  0  0  0  0  0  0  0  0
    4.5917    1.7583    0.0000 C   0  0  0  0  0  0  0  0  0  0  0  0
    2.0042    2.3083    0.0000 C   0  0  0  0  0  0  0  0  0  0  0  0
    5.2417    2.1333    0.0000 C   0  0  0  0  0  0  0  0  0  0  0  0
    4.4167    3.3833    0.0000 N   0  0  0  0  0  0  0  0  0  0  0  0
    5.8875    1.7583    0.0000 C   0  0  0  0  0  0  0  0  0  0  0  0
    5.5542    4.4542    0.0000 S   0  0  0  0  0  0  0  0  0  0  0  0
    6.5375    2.1333    0.0000 C   0  0  0  0  0  0  0  0  0  0  0  0
    4.8167    4.6042    0.0000 C   0  0  0  0  0  0  0  0  0  0  0  0
    1.5042    2.8625    0.0000 O   0  0  0  0  0  0  0  0  0  0  0  0
    4.5917    1.0083    0.0000 O   0  0  0  0  0  0  0  0  0  0  0  0
    1.6292    1.6583    0.0000 C   0  0  0  0  0  0  0  0  0  0  0  0
    6.5375    2.8833    0.0000 C   0  0  0  0  0  0  0  0  0  0  0  0
    5.9292    5.1042    0.0000 C   0  0  0  0  0  0  0  0  0  0  0  0
    5.2417    2.8833    0.0000 C   0  0  0  0  0  0  0  0  0  0  0  0
    4.7417    5.3542    0.0000 C   0  0  0  0  0  0  0  0  0  0  0  0
    0.8167    2.5583    0.0000 C   0  0  0  0  0  0  0  0  0  0  0  0
    0.9000    1.8125    0.0000 C   0  0  0  0  0  0  0  0  0  0  0  0
    5.4292    5.6542    0.0000 C   0  0  0  0  0  0  0  0  0  0  0  0
    5.8875    3.2583    0.0000 C   0  0  0  0  0  0  0  0  0  0  0  0
    4.2625    4.1042    0.0000 C   0  0  0  0  0  0  0  0  0  0  0  0
    7.1875    1.7583    0.0000 O   0  0  0  0  0  0  0  0  0  0  0  0
    7.1875    3.2583    0.0000 O   0  0  0  0  0  0  0  0  0  0  0  0
    7.1875    1.0083    0.0000 C   0  0  0  0  0  0  0  0  0  0  0  0
    7.1875    4.0042    0.0000 C   0  0  0  0  0  0  0  0  0  0  0  0
  2  3  2  0  0  0  0
  3  1  1  0  0  0  0
  4  1  1  0  0  0  0
  5  4  2  0  0  0  0
  6  1  1  0  0  0  0
  7  5  1  0  0  0  0
  8  6  1  0  0  0  0
  9  3  1  0  0  0  0
 10  8  1  0  0  0  0
 11 13  1  0  0  0  0
 12 10  2  0  0  0  0
 13 25  1  0  0  0  0
 14  7  1  0  0  0  0
 15  6  2  0  0  0  0
 16  7  2  0  0  0  0
 17 24  2  0  0  0  0
 18 11  1  0  0  0  0
 19  8  2  0  0  0  0
 20 13  2  0  0  0  0
 21 14  1  0  0  0  0
 22 16  1  0  0  0  0
 23 20  1  0  0  0  0
 24 19  1  0  0  0  0
 25  9  1  0  0  0  0
 26 12  1  0  0  0  0
 27 17  1  0  0  0  0
 28 26  1  0  0  0  0
 29 27  1  0  0  0  0
  2  5  1  0  0  0  0
 17 12  1  0  0  0  0
 22 21  2  0  0  0  0
 23 18  2  0  0  0  0
M  END
>  <ID> (7988544)
7988544

>  <Supplier> (7988544)
ChemBridge

>  <clogP> (7988544)
4.476000000000008e+000

>  <RB> (7988544)
5

>  <tPSA> (7988544)
9.140999999999998e+001

>  <Hacc> (7988544)
6

>  <Hdon> (7988544)
1

>  <LogSw> (7988544)
-6.015000000000000e+000

>  <Group> (7988544)
2

>  <Core> (7988544)
323

$$$$
5581566
  -ISIS-  03310818222D

 26 29  0  0  0  0  0  0  0  0999 V2000
   -1.8625    0.2208    0.0000 C   0  0  0  0  0  0  0  0  0  0  0  0
   -1.3625   -0.5000    0.0000 C   0  0  0  0  0  0  0  0  0  0  0  0
   -1.5833    1.0625    0.0000 C   0  0  0  0  0  0  0  0  0  0  0  0
   -1.8625   -1.2000    0.0000 S   0  0  0  0  0  0  0  0  0  0  0  0
   -2.7000   -0.0542    0.0000 C   0  0  0  0  0  0  0  0  0  0  0  0
   -0.4833   -0.5000    0.0000 N   0  0  0  0  0  0  0  0  0  0  0  0
   -2.7000   -0.9375    0.0000 C   0  0  0  0  0  0  0  0  0  0  0  0
   -0.0458   -1.2542    0.0000 C   0  0  0  0  0  0  0  0  0  0  0  0
   -0.7000    1.2458    0.0000 N   0  0  0  0  0  0  0  0  0  0  0  0
    0.8292   -1.2542    0.0000 C   0  0  0  0  0  0  0  0  0  0  0  0
   -0.4625    2.0833    0.0000 C   0  0  0  0  0  0  0  0  0  0  0  0
    1.3667   -1.9542    0.0000 O   0  0  0  0  0  0  0  0  0  0  0  0
   -2.1625    1.7458    0.0000 O   0  0  0  0  0  0  0  0  0  0  0  0
   -0.4833   -2.0167    0.0000 O   0  0  0  0  0  0  0  0  0  0  0  0
    1.3000   -0.5542    0.0000 C   0  0  0  0  0  0  0  0  0  0  0  0
    2.1875   -1.6500    0.0000 C   0  0  0  0  0  0  0  0  0  0  0  0
    2.1292   -0.7667    0.0000 C   0  0  0  0  0  0  0  0  0  0  0  0
    0.4167    2.2833    0.0000 C   0  0  0  0  0  0  0  0  0  0  0  0
   -3.4625    0.3833    0.0000 C   0  0  0  0  0  0  0  0  0  0  0  0
   -3.4625   -1.3792    0.0000 C   0  0  0  0  0  0  0  0  0  0  0  0
   -4.2208   -0.9375    0.0000 C   0  0  0  0  0  0  0  0  0  0  0  0
   -1.0458    2.7458    0.0000 C   0  0  0  0  0  0  0  0  0  0  0  0
    1.0375    1.6833    0.0000 C   0  0  0  0  0  0  0  0  0  0  0  0
    0.6542    3.1083    0.0000 C   0  0  0  0  0  0  0  0  0  0  0  0
   -0.8000    3.5458    0.0000 C   0  0  0  0  0  0  0  0  0  0  0  0
    0.0542    3.7458    0.0000 C   0  0  0  0  0  0  0  0  0  0  0  0
  2  1  2  0  0  0  0
  3  1  1  0  0  0  0
  4  2  1  0  0  0  0
  5  1  1  0  0  0  0
  6  2  1  0  0  0  0
  7  5  2  0  0  0  0
  8  6  1  0  0  0  0
  9  3  1  0  0  0  0
 10  8  1  0  0  0  0
 11  9  1  0  0  0  0
 12 10  1  0  0  0  0
 13  3  2  0  0  0  0
 14  8  2  0  0  0  0
 15 10  2  0  0  0  0
 16 12  1  0  0  0  0
 17 15  1  0  0  0  0
 18 11  1  0  0  0  0
 19  5  1  0  0  0  0
 20  7  1  0  0  0  0
 21 19  1  0  0  0  0
 22 11  2  0  0  0  0
 23 18  1  0  0  0  0
 24 18  2  0  0  0  0
 25 22  1  0  0  0  0
 26 25  2  0  0  0  0
  7  4  1  0  0  0  0
 20 21  1  0  0  0  0
 26 24  1  0  0  0  0
 16 17  2  0  0  0  0
M  END
>  <ID> (5581566)
5581566

>  <Supplier> (5581566)
ChemBridge

>  <clogP> (5581566)
3.660000000000000e+000

>  <RB> (5581566)
4

>  <tPSA> (5581566)
7.133999999999999e+001

>  <Hacc> (5581566)
3

>  <Hdon> (5581566)
2

>  <LogSw> (5581566)
-4.997000000000000e+000

>  <Group> (5581566)
3

>  <Core> (5581566)
097

$$$$
6469567
  -ISIS-  03310818242D

 27 28  0  0  0  0  0  0  0  0999 V2000
    5.7417   -4.4667    0.0000 S   0  0  3  0  0  0  0  0  0  0  0  0
    5.7417   -3.6417    0.0000 N   0  0  3  0  0  0  0  0  0  0  0  0
    5.0250   -3.2292    0.0000 C   0  0  0  0  0  0  0  0  0  0  0  0
    6.4542   -3.2292    0.0000 C   0  0  0  0  0  0  0  0  0  0  0  0
    7.1667   -3.6417    0.0000 C   0  0  0  0  0  0  0  0  0  0  0  0
    8.5917   -3.6375    0.0000 C   0  0  0  0  0  0  0  0  0  0  0  0
    7.8792   -3.2292    0.0000 N   0  0  0  0  0  0  0  0  0  0  0  0
    8.5875   -4.4542    0.0000 C   0  0  0  0  0  0  0  0  0  0  0  0
    6.3250   -5.0500    0.0000 O   0  0  0  0  0  0  0  0  0  0  0  0
    6.5667   -4.4667    0.0000 O   0  0  0  0  0  0  0  0  0  0  0  0
    9.3000   -3.2167    0.0000 C   0  0  0  0  0  0  0  0  0  0  0  0
    5.0292   -2.4000    0.0000 C   0  0  0  0  0  0  0  0  0  0  0  0
    7.1667   -4.4667    0.0000 O   0  0  0  0  0  0  0  0  0  0  0  0
   10.0125   -3.6375    0.0000 C   0  0  0  0  0  0  0  0  0  0  0  0
    9.2917   -4.8667    0.0000 C   0  0  0  0  0  0  0  0  0  0  0  0
    5.0250   -4.8750    0.0000 C   0  0  0  0  0  0  0  0  0  0  0  0
   10.0125   -4.4542    0.0000 C   0  0  0  0  0  0  0  0  0  0  0  0
    9.2917   -5.6917    0.0000 Cl  0  0  0  0  0  0  0  0  0  0  0  0
    9.2917   -2.3917    0.0000 O   0  0  0  0  0  0  0  0  0  0  0  0
    5.7417   -1.9875    0.0000 O   0  0  0  0  0  0  0  0  0  0  0  0
    4.3125   -3.6542    0.0000 C   0  0  0  0  0  0  0  0  0  0  0  0
    4.3167   -1.9875    0.0000 C   0  0  0  0  0  0  0  0  0  0  0  0
    6.4542   -2.4042    0.0000 C   0  0  0  0  0  0  0  0  0  0  0  0
    8.5750   -1.9792    0.0000 C   0  0  0  0  0  0  0  0  0  0  0  0
    3.5917   -3.2292    0.0000 C   0  0  0  0  0  0  0  0  0  0  0  0
    7.1667   -1.9917    0.0000 C   0  0  0  0  0  0  0  0  0  0  0  0
    3.5917   -2.4000    0.0000 C   0  0  0  0  0  0  0  0  0  0  0  0
  2  1  1  0  0  0  0
  3  2  1  0  0  0  0
  4  2  1  0  0  0  0
  5  4  1  0  0  0  0
  6  7  1  0  0  0  0
  7  5  1  0  0  0  0
  8  6  2  0  0  0  0
  9  1  2  0  0  0  0
 10  1  2  0  0  0  0
 11  6  1  0  0  0  0
 12  3  2  0  0  0  0
 13  5  2  0  0  0  0
 14 11  2  0  0  0  0
 15  8  1  0  0  0  0
 16  1  1  0  0  0  0
 17 14  1  0  0  0  0
 18 15  1  0  0  0  0
 19 11  1  0  0  0  0
 20 12  1  0  0  0  0
 21  3  1  0  0  0  0
 22 12  1  0  0  0  0
 23 20  1  0  0  0  0
 24 19  1  0  0  0  0
 25 21  2  0  0  0  0
 26 23  1  0  0  0  0
 27 25  1  0  0  0  0
 27 22  2  0  0  0  0
 17 15  2  0  0  0  0
M  END
>  <ID> (6469567)
6469567

>  <Supplier> (6469567)
ChemBridge

>  <clogP> (6469567)
3.080000000000000e+000

>  <RB> (6469567)
4

>  <tPSA> (6469567)
8.494000000000000e+001

>  <Hacc> (6469567)
5

>  <Hdon> (6469567)
1

>  <LogSw> (6469567)
-4.840000000000000e+000

>  <Group> (6469567)
3

>  <Core> (6469567)
084

$$$$
6469564
  -ISIS-  03310818242D

 21 22  0  0  0  0  0  0  0  0999 V2000
    7.8792   -3.2125    0.0000 N   0  0  0  0  0  0  0  0  0  0  0  0
    8.5917   -3.6167    0.0000 C   0  0  0  0  0  0  0  0  0  0  0  0
    7.1667   -3.6250    0.0000 C   0  0  0  0  0  0  0  0  0  0  0  0
    9.3000   -3.2042    0.0000 C   0  0  0  0  0  0  0  0  0  0  0  0
   10.0125   -3.6167    0.0000 C   0  0  0  0  0  0  0  0  0  0  0  0
    7.1667   -4.4417    0.0000 O   0  0  0  0  0  0  0  0  0  0  0  0
    8.5875   -4.4417    0.0000 C   0  0  0  0  0  0  0  0  0  0  0  0
    5.7375   -3.6250    0.0000 S   0  0  0  0  0  0  0  0  0  0  0  0
   10.0125   -4.4417    0.0000 C   0  0  0  0  0  0  0  0  0  0  0  0
    9.2917   -4.8500    0.0000 C   0  0  0  0  0  0  0  0  0  0  0  0
    4.3042   -3.6250    0.0000 C   0  0  0  0  0  0  0  0  0  0  0  0
   10.7250   -4.8542    0.0000 Cl  0  0  0  0  0  0  0  0  0  0  0  0
    2.8750   -4.4417    0.0000 C   0  0  0  0  0  0  0  0  0  0  0  0
    6.4542   -3.2125    0.0000 C   0  0  0  0  0  0  0  0  0  0  0  0
    3.5875   -4.8625    0.0000 C   0  0  0  0  0  0  0  0  0  0  0  0
    2.8750   -3.6250    0.0000 C   0  0  0  0  0  0  0  0  0  0  0  0
    4.3042   -4.4417    0.0000 C   0  0  0  0  0  0  0  0  0  0  0  0
    3.5875   -3.2042    0.0000 C   0  0  0  0  0  0  0  0  0  0  0  0
    5.0250   -3.2125    0.0000 C   0  0  0  0  0  0  0  0  0  0  0  0
    9.2917   -2.3792    0.0000 C   0  0  0  0  0  0  0  0  0  0  0  0
    2.1542   -4.8667    0.0000 C   0  0  0  0  0  0  0  0  0  0  0  0
  2  1  1  0  0  0  0
  3  1  1  0  0  0  0
  4  2  1  0  0  0  0
  5  4  2  0  0  0  0
  6  3  2  0  0  0  0
  7  2  2  0  0  0  0
  8 14  1  0  0  0  0
  9 10  2  0  0  0  0
 10  7  1  0  0  0  0
 11 19  1  0  0  0  0
 12  9  1  0  0  0  0
 13 16  1  0  0  0  0
 14  3  1  0  0  0  0
 15 17  1  0  0  0  0
 16 18  2  0  0  0  0
 17 11  2  0  0  0  0
 18 11  1  0  0  0  0
 19  8  1  0  0  0  0
 20  4  1  0  0  0  0
 21 13  1  0  0  0  0
  9  5  1  0  0  0  0
 15 13  2  0  0  0  0
M  END
>  <ID> (6469564)
6469564

>  <Supplier> (6469564)
ChemBridge

>  <clogP> (6469564)
4.700000000000000e+000

>  <RB> (6469564)
5

>  <tPSA> (6469564)
2.910000000000000e+001

>  <Hacc> (6469564)
1

>  <Hdon> (6469564)
1

>  <LogSw> (6469564)
-5.546000000000000e+000

>  <Group> (6469564)
1

>  <Core> (6469564)
431

$$$$
6094927
  -ISIS-  03310818232D

 28 31  0  0  0  0  0  0  0  0999 V2000
    5.6542   -2.8667    0.0000 S   0  0  3  0  0  0  0  0  0  0  0  0
    3.3042    1.0750    0.0000 N   0  0  0  0  0  0  0  0  0  0  0  0
    2.6417    0.5958    0.0000 C   0  0  0  0  0  0  0  0  0  0  0  0
    3.7167   -0.1917    0.0000 C   0  0  0  0  0  0  0  0  0  0  0  0
    3.9750    0.5958    0.0000 C   0  0  0  0  0  0  0  0  0  0  0  0
    2.8917   -0.1917    0.0000 S   0  0  0  0  0  0  0  0  0  0  0  0
    4.2042   -0.8625    0.0000 C   0  0  0  0  0  0  0  0  0  0  0  0
    5.1667   -2.2000    0.0000 O   0  0  0  0  0  0  0  0  0  0  0  0
    6.4750   -2.7792    0.0000 C   0  0  0  0  0  0  0  0  0  0  0  0
    3.8667   -1.6167    0.0000 C   0  0  0  0  0  0  0  0  0  0  0  0
    4.3417   -2.2792    0.0000 C   0  0  0  0  0  0  0  0  0  0  0  0
    5.3167   -3.6167    0.0000 O   0  0  0  0  0  0  0  0  0  0  0  0
    5.7792   -2.0500    0.0000 O   0  0  0  0  0  0  0  0  0  0  0  0
    6.9625   -3.4417    0.0000 C   0  0  0  0  0  0  0  0  0  0  0  0
    1.8542    0.8458    0.0000 N   0  0  0  0  0  0  0  0  0  0  0  0
    4.7625    0.8458    0.0000 O   0  0  0  0  0  0  0  0  0  0  0  0
    7.7792   -3.3625    0.0000 C   0  0  0  0  0  0  0  0  0  0  0  0
    6.8167   -2.0167    0.0000 C   0  0  0  0  0  0  0  0  0  0  0  0
    8.1167   -2.6042    0.0000 C   0  0  0  0  0  0  0  0  0  0  0  0
    7.6375   -1.9375    0.0000 C   0  0  0  0  0  0  0  0  0  0  0  0
    3.0417   -1.7000    0.0000 C   0  0  0  0  0  0  0  0  0  0  0  0
    4.0167   -3.0375    0.0000 C   0  0  0  0  0  0  0  0  0  0  0  0
    8.2667   -4.0292    0.0000 C   0  0  0  0  0  0  0  0  0  0  0  0
    8.9417   -2.5167    0.0000 C   0  0  0  0  0  0  0  0  0  0  0  0
    3.2000   -3.1250    0.0000 C   0  0  0  0  0  0  0  0  0  0  0  0
    2.7042   -2.4542    0.0000 C   0  0  0  0  0  0  0  0  0  0  0  0
    9.0875   -3.9417    0.0000 C   0  0  0  0  0  0  0  0  0  0  0  0
    9.4292   -3.1917    0.0000 C   0  0  0  0  0  0  0  0  0  0  0  0
  2  5  1  0  0  0  0
  3  6  1  0  0  0  0
  4  7  2  0  0  0  0
  5  4  1  0  0  0  0
  6  4  1  0  0  0  0
  7 10  1  0  0  0  0
  8  1  1  0  0  0  0
  9  1  1  0  0  0  0
 10 11  2  0  0  0  0
 11  8  1  0  0  0  0
 12  1  2  0  0  0  0
 13  1  2  0  0  0  0
 14  9  2  0  0  0  0
 15  3  2  0  0  0  0
 16  5  2  0  0  0  0
 17 14  1  0  0  0  0
 18  9  1  0  0  0  0
 19 20  1  0  0  0  0
 20 18  2  0  0  0  0
 21 10  1  0  0  0  0
 22 11  1  0  0  0  0
 23 17  2  0  0  0  0
 24 19  2  0  0  0  0
 25 22  2  0  0  0  0
 26 25  1  0  0  0  0
 27 23  1  0  0  0  0
 28 24  1  0  0  0  0
 17 19  1  0  0  0  0
 21 26  2  0  0  0  0
 27 28  2  0  0  0  0
  3  2  1  0  0  0  0
M  END
>  <ID> (6094927)
6094927

>  <Supplier> (6094927)
ChemBridge

>  <clogP> (6094927)
4.220000000000000e+000

>  <RB> (6094927)
4

>  <tPSA> (6094927)
9.631999999999999e+001

>  <Hacc> (6094927)
5

>  <Hdon> (6094927)
2

>  <LogSw> (6094927)
-5.796000000000000e+000

>  <Group> (6094927)
1

>  <Core> (6094927)
004

$$$$
6094925
  -ISIS-  03310818232D

 26 27  0  0  0  0  0  0  0  0999 V2000
   -0.8833    1.1125    0.0000 N   0  3  0  0  0  0  0  0  0  0  0  0
   -0.3333    1.8833    0.0000 C   0  0  0  0  0  0  0  0  0  0  0  0
   -0.9333    2.6625    0.0000 N   0  0  3  0  0  0  0  0  0  0  0  0
   -1.8000    1.3833    0.0000 C   0  0  0  0  0  0  0  0  0  0  0  0
   -1.8000    2.3333    0.0000 C   0  0  0  0  0  0  0  0  0  0  0  0
   -0.5458    0.2333    0.0000 C   0  0  0  0  0  0  0  0  0  0  0  0
   -1.3833    0.8000    0.0000 I   0  5  0  0  0  0  0  0  0  0  0  0
    0.3875    0.0708    0.0000 C   0  0  3  0  0  0  0  0  0  0  0  0
    1.6500   -0.9542    0.0000 O   0  0  0  0  0  0  0  0  0  0  0  0
   -0.7208    3.5708    0.0000 C   0  0  0  0  0  0  0  0  0  0  0  0
    0.6042    1.8833    0.0000 C   0  0  0  0  0  0  0  0  0  0  0  0
    2.2375   -0.2292    0.0000 C   0  0  0  0  0  0  0  0  0  0  0  0
    3.4042    1.2708    0.0000 C   0  0  0  0  0  0  0  0  0  0  0  0
    0.7167   -0.8042    0.0000 C   0  0  0  0  0  0  0  0  0  0  0  0
    3.9875    2.0208    0.0000 Cl  0  0  0  0  0  0  0  0  0  0  0  0
   -2.6333    0.9000    0.0000 C   0  0  0  0  0  0  0  0  0  0  0  0
   -2.6333    2.8208    0.0000 C   0  0  0  0  0  0  0  0  0  0  0  0
    1.8875    0.6458    0.0000 C   0  0  0  0  0  0  0  0  0  0  0  0
    3.2000   -0.3500    0.0000 C   0  0  0  0  0  0  0  0  0  0  0  0
    3.7542    0.3833    0.0000 C   0  0  0  0  0  0  0  0  0  0  0  0
    2.4667    1.4125    0.0000 C   0  0  0  0  0  0  0  0  0  0  0  0
    1.0000    0.8000    0.0000 O   0  0  0  0  0  0  0  0  0  0  0  0
    1.0792    2.6958    0.0000 C   0  0  0  0  0  0  0  0  0  0  0  0
   -3.4625    1.3833    0.0000 C   0  0  0  0  0  0  0  0  0  0  0  0
   -3.4625    2.3333    0.0000 C   0  0  0  0  0  0  0  0  0  0  0  0
    2.0042    2.6958    0.0000 C   0  0  0  0  0  0  0  0  0  0  0  0
  2  1  2  0  0  0  0
  3  2  1  0  0  0  0
  4  1  1  0  0  0  0
  5  4  2  0  0  0  0
  6  1  1  0  0  0  0
  8  6  1  0  0  0  0
  9 14  1  0  0  0  0
 10  3  1  0  0  0  0
 11  2  1  0  0  0  0
 12  9  1  0  0  0  0
 13 20  2  0  0  0  0
 14  8  1  0  0  0  0
 15 13  1  0  0  0  0
 16  4  1  0  0  0  0
 17  5  1  0  0  0  0
 18 12  1  0  0  0  0
 19 12  2  0  0  0  0
 20 19  1  0  0  0  0
 21 18  2  0  0  0  0
 22  8  1  0  0  0  0
 23 11  1  0  0  0  0
 24 16  2  0  0  0  0
 25 24  1  0  0  0  0
 26 23  1  0  0  0  0
  5  3  1  0  0  0  0
 25 17  2  0  0  0  0
 21 13  1  0  0  0  0
M  CHG  2   1   1   7  -1
M  END
>  <ID> (6094925)
6094925

>  <Supplier> (6094925)
ChemBridge

>  <clogP> (6094925)
4.119999999999998e+000

>  <RB> (6094925)
5

>  <tPSA> (6094925)
3.827000000000000e+001

>  <Hacc> (6094925)
4

>  <Hdon> (6094925)
1

>  <LogSw> (6094925)
-5.335000000000000e+000

>  <Group> (6094925)
3

>  <Core> (6094925)
189

$$$$
5839157
  -ISIS-  03310818222D

 26 28  0  0  0  0  0  0  0  0999 V2000
    4.2292   -1.5917    0.0000 C   0  0  0  0  0  0  0  0  0  0  0  0
    4.6792   -2.1917    0.0000 O   0  0  0  0  0  0  0  0  0  0  0  0
    5.3917   -1.9542    0.0000 C   0  0  0  0  0  0  0  0  0  0  0  0
    3.4792   -1.6000    0.0000 C   0  0  0  0  0  0  0  0  0  0  0  0
    4.6667   -0.9792    0.0000 C   0  0  0  0  0  0  0  0  0  0  0  0
    5.3792   -1.2042    0.0000 C   0  0  0  0  0  0  0  0  0  0  0  0
    3.1000   -0.9542    0.0000 N   0  0  0  0  0  0  0  0  0  0  0  0
    6.0042   -2.3875    0.0000 C   0  0  0  0  0  0  0  0  0  0  0  0
   -0.2875   -0.3417    0.0000 C   0  0  0  0  0  0  0  0  0  0  0  0
    0.0917   -0.9875    0.0000 N   0  0  0  0  0  0  0  0  0  0  0  0
    3.1167   -2.2500    0.0000 O   0  0  0  0  0  0  0  0  0  0  0  0
    0.0792    0.3125    0.0000 O   0  0  0  0  0  0  0  0  0  0  0  0
    5.9292   -3.1292    0.0000 C   0  0  0  0  0  0  0  0  0  0  0  0
    6.6792   -2.0750    0.0000 C   0  0  0  0  0  0  0  0  0  0  0  0
    2.3500   -0.9625    0.0000 C   0  0  0  0  0  0  0  0  0  0  0  0
    0.8417   -0.9792    0.0000 C   0  0  0  0  0  0  0  0  0  0  0  0
    7.2250   -3.2542    0.0000 C   0  0  0  0  0  0  0  0  0  0  0  0
    7.2917   -2.5042    0.0000 C   0  0  0  0  0  0  0  0  0  0  0  0
    6.5417   -3.5667    0.0000 C   0  0  0  0  0  0  0  0  0  0  0  0
    7.8375   -3.6917    0.0000 Cl  0  0  0  0  0  0  0  0  0  0  0  0
    1.9667   -0.3042    0.0000 C   0  0  0  0  0  0  0  0  0  0  0  0
    1.9792   -1.6167    0.0000 C   0  0  0  0  0  0  0  0  0  0  0  0
    1.2292   -1.6250    0.0000 C   0  0  0  0  0  0  0  0  0  0  0  0
    1.2167   -0.3167    0.0000 C   0  0  0  0  0  0  0  0  0  0  0  0
   -1.0375   -0.3542    0.0000 C   0  0  0  0  0  0  0  0  0  0  0  0
   -1.4208    0.2958    0.0000 C   0  0  0  0  0  0  0  0  0  0  0  0
  2  1  1  0  0  0  0
  3  2  1  0  0  0  0
  4  1  1  0  0  0  0
  5  1  2  0  0  0  0
  6  5  1  0  0  0  0
  7  4  1  0  0  0  0
  8  3  1  0  0  0  0
  9 10  1  0  0  0  0
 10 16  1  0  0  0  0
 11  4  2  0  0  0  0
 12  9  2  0  0  0  0
 13  8  1  0  0  0  0
 14  8  2  0  0  0  0
 15  7  1  0  0  0  0
 16 23  2  0  0  0  0
 17 18  2  0  0  0  0
 18 14  1  0  0  0  0
 19 13  2  0  0  0  0
 20 17  1  0  0  0  0
 21 15  1  0  0  0  0
 22 15  2  0  0  0  0
 23 22  1  0  0  0  0
 24 21  2  0  0  0  0
 25  9  1  0  0  0  0
 26 25  1  0  0  0  0
  6  3  2  0  0  0  0
 16 24  1  0  0  0  0
 17 19  1  0  0  0  0
M  END
>  <ID> (5839157)
5839157

>  <Supplier> (5839157)
ChemBridge

>  <clogP> (5839157)
4.220000000000000e+000

>  <RB> (5839157)
4

>  <tPSA> (5839157)
7.133999999999999e+001

>  <Hacc> (5839157)
3

>  <Hdon> (5839157)
2

>  <LogSw> (5839157)
-5.493000000000000e+000

>  <Group> (5839157)
3

>  <Core> (5839157)
466

$$$$
7705436
  -ISIS-  03310818262D

 27 29  0  0  0  0  0  0  0  0999 V2000
   10.6375   -4.8125    0.0000 C   0  0  0  0  0  0  0  0  0  0  0  0
   11.1042   -5.8667    0.0000 S   0  0  0  0  0  0  0  0  0  0  0  0
    4.6667   -2.4792    0.0000 N   0  3  0  0  0  0  0  0  0  0  0  0
    9.5167   -4.5667    0.0000 N   0  0  0  0  0  0  0  0  0  0  0  0
   11.4917   -4.0417    0.0000 N   0  0  0  0  0  0  0  0  0  0  0  0
   12.4792   -4.6167    0.0000 N   0  0  0  0  0  0  0  0  0  0  0  0
   12.2417   -5.7417    0.0000 C   0  0  0  0  0  0  0  0  0  0  0  0
    9.1667   -3.4750    0.0000 C   0  0  0  0  0  0  0  0  0  0  0  0
    5.8042   -2.7250    0.0000 C   0  0  0  0  0  0  0  0  0  0  0  0
    4.3250   -1.3792    0.0000 O   0  5  0  0  0  0  0  0  0  0  0  0
    8.0417   -3.2250    0.0000 C   0  0  0  0  0  0  0  0  0  0  0  0
    3.8917   -3.3292    0.0000 O   0  0  0  0  0  0  0  0  0  0  0  0
    9.9417   -2.6250    0.0000 O   0  0  0  0  0  0  0  0  0  0  0  0
   12.6625   -7.6667    0.0000 O   0  0  0  0  0  0  0  0  0  0  0  0
   13.4292   -8.5167    0.0000 C   0  0  0  0  0  0  0  0  0  0  0  0
   13.0125   -6.5875    0.0000 C   0  0  0  0  0  0  0  0  0  0  0  0
    6.1542   -3.8292    0.0000 C   0  0  0  0  0  0  0  0  0  0  0  0
    6.5792   -1.8750    0.0000 C   0  0  0  0  0  0  0  0  0  0  0  0
    7.2750   -4.0667    0.0000 C   0  0  0  0  0  0  0  0  0  0  0  0
    7.7042   -2.1292    0.0000 C   0  0  0  0  0  0  0  0  0  0  0  0
   14.5375   -8.2667    0.0000 C   0  0  0  0  0  0  0  0  0  0  0  0
   14.8792   -7.1792    0.0000 C   0  0  0  0  0  0  0  0  0  0  0  0
   13.0792   -9.6000    0.0000 C   0  0  0  0  0  0  0  0  0  0  0  0
   15.3042   -9.1125    0.0000 C   0  0  0  0  0  0  0  0  0  0  0  0
   16.0000   -6.9375    0.0000 C   0  0  0  0  0  0  0  0  0  0  0  0
   13.8417  -10.4417    0.0000 C   0  0  0  0  0  0  0  0  0  0  0  0
   14.9542  -10.2042    0.0000 C   0  0  0  0  0  0  0  0  0  0  0  0
  2  1  1  0  0  0  0
  3  9  1  0  0  0  0
  4  1  1  0  0  0  0
  5  1  2  0  0  0  0
  6  5  1  0  0  0  0
  7  2  1  0  0  0  0
  8  4  1  0  0  0  0
  9 18  2  0  0  0  0
 10  3  1  0  0  0  0
 11  8  1  0  0  0  0
 12  3  2  0  0  0  0
 13  8  2  0  0  0  0
 14 16  1  0  0  0  0
 15 14  1  0  0  0  0
 16  7  1  0  0  0  0
 17 19  2  0  0  0  0
 18 20  1  0  0  0  0
 19 11  1  0  0  0  0
 20 11  2  0  0  0  0
 21 15  1  0  0  0  0
 22 21  1  0  0  0  0
 23 15  2  0  0  0  0
 24 21  2  0  0  0  0
 25 22  1  0  0  0  0
 26 23  1  0  0  0  0
 27 26  2  0  0  0  0
  6  7  2  0  0  0  0
 17  9  1  0  0  0  0
 27 24  1  0  0  0  0
M  CHG  2   3   1  10  -1
M  END
>  <ID> (7705436)
7705436

>  <Supplier> (7705436)
ChemBridge

>  <clogP> (7705436)
3.515000000000000e+000

>  <RB> (7705436)
5

>  <tPSA> (7705436)
1.072500000000000e+002

>  <Hacc> (7705436)
6

>  <Hdon> (7705436)
1

>  <LogSw> (7705436)
-5.377000000000000e+000

>  <Group> (7705436)
3

>  <Core> (7705436)
246

$$$$
7459688
  -ISIS-  03310818262D

 26 28  0  0  0  0  0  0  0  0999 V2000
    1.1542   -0.9167    0.0000 N   0  0  3  0  0  0  0  0  0  0  0  0
    1.4125   -1.7042    0.0000 C   0  0  0  0  0  0  0  0  0  0  0  0
    1.8250   -0.4292    0.0000 C   0  0  0  0  0  0  0  0  0  0  0  0
    2.4917   -0.9167    0.0000 C   0  0  0  0  0  0  0  0  0  0  0  0
    2.2375   -1.7042    0.0000 N   0  0  0  0  0  0  0  0  0  0  0  0
    2.4042    2.0583    0.0000 N   0  3  0  0  0  0  0  0  0  0  0  0
    3.0125    1.5000    0.0000 C   0  0  0  0  0  0  0  0  0  0  0  0
    0.3750   -0.6625    0.0000 C   0  0  0  0  0  0  0  0  0  0  0  0
    3.2792   -0.6625    0.0000 C   0  0  0  0  0  0  0  0  0  0  0  0
    0.2000    0.1458    0.0000 C   0  0  0  0  0  0  0  0  0  0  0  0
    3.7917    1.7458    0.0000 C   0  0  0  0  0  0  0  0  0  0  0  0
    2.8375    0.6958    0.0000 C   0  0  0  0  0  0  0  0  0  0  0  0
    2.5792    2.8625    0.0000 O   0  5  0  0  0  0  0  0  0  0  0  0
    0.9250   -2.3667    0.0000 O   0  0  0  0  0  0  0  0  0  0  0  0
    1.6167    1.8083    0.0000 O   0  0  0  0  0  0  0  0  0  0  0  0
    1.8167    0.3958    0.0000 O   0  0  0  0  0  0  0  0  0  0  0  0
    3.4500    0.1375    0.0000 C   0  0  0  0  0  0  0  0  0  0  0  0
   -0.5833    0.3958    0.0000 C   0  0  0  0  0  0  0  0  0  0  0  0
    4.4042    1.2083    0.0000 C   0  0  0  0  0  0  0  0  0  0  0  0
    4.2292    0.4000    0.0000 C   0  0  0  0  0  0  0  0  0  0  0  0
    3.9667    2.5583    0.0000 Cl  0  0  0  0  0  0  0  0  0  0  0  0
   -1.1958   -0.1542    0.0000 F   0  0  0  0  0  0  0  0  0  0  0  0
    0.8167    0.6958    0.0000 C   0  0  0  0  0  0  0  0  0  0  0  0
   -0.7583    1.2000    0.0000 C   0  0  0  0  0  0  0  0  0  0  0  0
    0.6417    1.5000    0.0000 C   0  0  0  0  0  0  0  0  0  0  0  0
   -0.1458    1.7583    0.0000 C   0  0  0  0  0  0  0  0  0  0  0  0
  2  1  1  0  0  0  0
  3  1  1  0  0  0  0
  4  3  1  0  0  0  0
  5  2  1  0  0  0  0
  6  7  1  0  0  0  0
  7 12  1  0  0  0  0
  8  1  1  0  0  0  0
  9  4  2  0  0  0  0
 10  8  1  0  0  0  0
 11 19  1  0  0  0  0
 12 17  2  0  0  0  0
 13  6  1  0  0  0  0
 14  2  2  0  0  0  0
 15  6  2  0  0  0  0
 16  3  2  0  0  0  0
 17  9  1  0  0  0  0
 18 10  1  0  0  0  0
 19 20  2  0  0  0  0
 20 17  1  0  0  0  0
 21 11  1  0  0  0  0
 22 18  1  0  0  0  0
 23 10  2  0  0  0  0
 24 18  2  0  0  0  0
 25 23  1  0  0  0  0
 26 25  2  0  0  0  0
  5  4  1  0  0  0  0
 24 26  1  0  0  0  0
 11  7  2  0  0  0  0
M  CHG  2   6   1  13  -1
M  END
>  <ID> (7459688)
7459688

>  <Supplier> (7459688)
ChemBridge

>  <clogP> (7459688)
3.035000000000000e+000

>  <RB> (7459688)
3

>  <tPSA> (7459688)
9.255000000000003e+001

>  <Hacc> (7459688)
4

>  <Hdon> (7459688)
1

>  <LogSw> (7459688)
-5.941000000000002e+000

>  <Group> (7459688)
1

>  <Core> (7459688)
003

$$$$
7977066
  -ISIS-  03310818282D

 25 26  0  0  0  0  0  0  0  0999 V2000
   -1.3583    3.5833    0.0000 S   0  0  3  0  0  0  0  0  0  0  0  0
    2.5417    1.3333    0.0000 N   0  3  0  0  0  0  0  0  0  0  0  0
   -0.7083    3.2083    0.0000 N   0  0  0  0  0  0  0  0  0  0  0  0
    0.5917    3.2083    0.0000 C   0  0  0  0  0  0  0  0  0  0  0  0
   -0.0583    3.5833    0.0000 C   0  0  3  0  0  0  0  0  0  0  0  0
    2.5417    2.0833    0.0000 C   0  0  0  0  0  0  0  0  0  0  0  0
    1.2417    3.5833    0.0000 N   0  0  0  0  0  0  0  0  0  0  0  0
   -1.8875    3.0583    0.0000 C   0  0  0  0  0  0  0  0  0  0  0  0
   -0.9250    4.1917    0.0000 O   0  0  0  0  0  0  0  0  0  0  0  0
   -1.9333    4.0625    0.0000 O   0  0  0  0  0  0  0  0  0  0  0  0
    1.8917    2.4583    0.0000 C   0  0  0  0  0  0  0  0  0  0  0  0
    3.1917    0.9583    0.0000 O   0  5  0  0  0  0  0  0  0  0  0  0
    1.8917    0.9583    0.0000 O   0  0  0  0  0  0  0  0  0  0  0  0
    1.8917    3.2083    0.0000 C   0  0  0  0  0  0  0  0  0  0  0  0
    0.5917    2.4583    0.0000 O   0  0  0  0  0  0  0  0  0  0  0  0
   -2.6083    3.2458    0.0000 C   0  0  0  0  0  0  0  0  0  0  0  0
   -1.6958    2.3333    0.0000 C   0  0  0  0  0  0  0  0  0  0  0  0
   -2.9458    1.9958    0.0000 C   0  0  0  0  0  0  0  0  0  0  0  0
   -3.1458    2.7208    0.0000 C   0  0  0  0  0  0  0  0  0  0  0  0
   -2.2208    1.8000    0.0000 C   0  0  0  0  0  0  0  0  0  0  0  0
   -3.4750    1.4625    0.0000 F   0  0  0  0  0  0  0  0  0  0  0  0
   -0.0583    4.3292    0.0000 C   0  0  0  0  0  0  0  0  0  0  0  0
    3.1917    2.4583    0.0000 C   0  0  0  0  0  0  0  0  0  0  0  0
    3.1917    3.2083    0.0000 C   0  0  0  0  0  0  0  0  0  0  0  0
    2.5417    3.5833    0.0000 C   0  0  0  0  0  0  0  0  0  0  0  0
  2  6  1  0  0  0  0
  3  1  1  0  0  0  0
  4  5  1  0  0  0  0
  5  3  1  0  0  0  0
  6 11  1  0  0  0  0
  7  4  1  0  0  0  0
  8  1  1  0  0  0  0
  9  1  2  0  0  0  0
 10  1  2  0  0  0  0
 11 14  2  0  0  0  0
 12  2  1  0  0  0  0
 13  2  2  0  0  0  0
 14  7  1  0  0  0  0
 15  4  2  0  0  0  0
 16  8  1  0  0  0  0
 17  8  2  0  0  0  0
 18 20  2  0  0  0  0
 19 16  2  0  0  0  0
 20 17  1  0  0  0  0
 21 18  1  0  0  0  0
 22  5  1  0  0  0  0
 23 24  1  0  0  0  0
 24 25  2  0  0  0  0
 25 14  1  0  0  0  0
 18 19  1  0  0  0  0
  6 23  2  0  0  0  0
M  CHG  2   2   1  12  -1
M  END
>  <ID> (7977066)
7977066

>  <Supplier> (7977066)
ChemBridge

>  <clogP> (7977066)
2.952000000000000e+000

>  <RB> (7977066)
4

>  <tPSA> (7977066)
1.184100000000000e+002

>  <Hacc> (7977066)
6

>  <Hdon> (7977066)
2

>  <LogSw> (7977066)
-4.789000000000002e+000

>  <Group> (7977066)
1

>  <Core> (7977066)
528

$$$$
7977064
  -ISIS-  03310818282D

 31 32  0  0  0  0  0  0  0  0999 V2000
    0.9500    0.0958    0.0000 C   0  0  3  0  0  0  0  0  0  0  0  0
    6.9500    2.6958    0.0000 C   0  0  0  0  0  0  0  0  0  0  0  0
    5.8250    3.3458    0.0000 C   0  0  0  0  0  0  0  0  0  0  0  0
    5.4500    2.6958    0.0000 C   0  0  0  0  0  0  0  0  0  0  0  0
    6.5750    3.3458    0.0000 C   0  0  0  0  0  0  0  0  0  0  0  0
    1.3250    0.7458    0.0000 C   0  0  0  0  0  0  0  0  0  0  0  0
    6.5750    2.0458    0.0000 C   0  0  0  0  0  0  0  0  0  0  0  0
    5.8250    2.0458    0.0000 C   0  0  0  0  0  0  0  0  0  0  0  0
    3.5750    2.0458    0.0000 C   0  0  0  0  0  0  0  0  0  0  0  0
    3.2000    1.3958    0.0000 N   0  0  0  0  0  0  0  0  0  0  0  0
    4.7000    2.6958    0.0000 O   0  0  0  0  0  0  0  0  0  0  0  0
    7.7000    2.6958    0.0000 C   0  0  0  0  0  0  0  0  0  0  0  0
    8.0750    2.0458    0.0000 N   0  0  0  0  0  0  0  0  0  0  0  0
    2.0667    0.7458    0.0000 C   0  0  0  0  0  0  0  0  0  0  0  0
    2.4417    1.3958    0.0000 C   0  0  0  0  0  0  0  0  0  0  0  0
    3.2000    2.6958    0.0000 O   0  0  0  0  0  0  0  0  0  0  0  0
    8.8250    2.0458    0.0000 C   0  0  3  0  0  0  0  0  0  0  0  0
    0.2250    0.2875    0.0000 F   0  0  0  0  0  0  0  0  0  0  0  0
    0.6917   -0.6125    0.0000 F   0  0  0  0  0  0  0  0  0  0  0  0
    1.6292   -0.2167    0.0000 F   0  0  0  0  0  0  0  0  0  0  0  0
    4.3250    2.0458    0.0000 C   0  0  0  0  0  0  0  0  0  0  0  0
    6.9500    3.9875    0.0000 Br  0  0  0  0  0  0  0  0  0  0  0  0
    5.4500    1.3958    0.0000 O   0  0  0  0  0  0  0  0  0  0  0  0
    0.9500    1.3958    0.0000 C   0  0  0  0  0  0  0  0  0  0  0  0
    9.7417    1.1208    0.0000 O   0  0  0  0  0  0  0  0  0  0  0  0
    1.3250    2.0458    0.0000 C   0  0  0  0  0  0  0  0  0  0  0  0
    9.0167    1.3208    0.0000 C   0  0  0  0  0  0  0  0  0  0  0  0
    2.0667    2.0458    0.0000 C   0  0  0  0  0  0  0  0  0  0  0  0
    9.5625    2.1708    0.0000 C   0  0  0  0  0  0  0  0  0  0  0  0
    8.7542    2.7875    0.0000 C   0  0  0  0  0  0  0  0  0  0  0  0
    5.8250    0.7458    0.0000 C   0  0  0  0  0  0  0  0  0  0  0  0
  2  7  1  0  0  0  0
  3  4  2  0  0  0  0
  4 11  1  0  0  0  0
  5  3  1  0  0  0  0
  6  1  1  0  0  0  0
  7  8  2  0  0  0  0
  8  4  1  0  0  0  0
  9 10  1  0  0  0  0
 10 15  1  0  0  0  0
 11 21  1  0  0  0  0
 12  2  1  0  0  0  0
 13 12  1  0  0  0  0
 14  6  1  0  0  0  0
 15 14  2  0  0  0  0
 16  9  2  0  0  0  0
 17 13  1  0  0  0  0
 18  1  1  0  0  0  0
 19  1  1  0  0  0  0
 20  1  1  0  0  0  0
 21  9  1  0  0  0  0
 22  5  1  0  0  0  0
 23  8  1  0  0  0  0
 24  6  2  0  0  0  0
 25 27  1  0  0  0  0
 26 24  1  0  0  0  0
 27 17  1  0  0  0  0
 28 26  2  0  0  0  0
 29 17  1  0  0  0  0
 30 17  1  0  0  0  0
 31 23  1  0  0  0  0
 28 15  1  0  0  0  0
  5  2  2  0  0  0  0
M  END
>  <ID> (7977064)
7977064

>  <Supplier> (7977064)
ChemBridge

>  <clogP> (7977064)
4.169000000000000e+000

>  <RB> (7977064)
8

>  <tPSA> (7977064)
7.981999999999999e+001

>  <Hacc> (7977064)
5

>  <Hdon> (7977064)
3

>  <LogSw> (7977064)
-6.443000000000001e+000

>  <Group> (7977064)
1

>  <Core> (7977064)
315

$$$$
7977063
  -ISIS-  03310818282D

 25 27  0  0  0  0  0  0  0  0999 V2000
    4.7000    2.6875    0.0000 N   0  0  0  0  0  0  0  0  0  0  0  0
    5.1375    3.2958    0.0000 C   0  0  0  0  0  0  0  0  0  0  0  0
    3.9875    2.9208    0.0000 C   0  0  0  0  0  0  0  0  0  0  0  0
    4.7000    3.9000    0.0000 N   0  0  0  0  0  0  0  0  0  0  0  0
    1.5542    1.1583    0.0000 N   0  3  0  0  0  0  0  0  0  0  0  0
    3.9875    3.6708    0.0000 O   0  0  0  0  0  0  0  0  0  0  0  0
    5.8875    3.2958    0.0000 C   0  0  0  0  0  0  0  0  0  0  0  0
    2.1667    1.5958    0.0000 C   0  0  0  0  0  0  0  0  0  0  0  0
    6.2625    2.6458    0.0000 C   0  0  0  0  0  0  0  0  0  0  0  0
    7.0125    2.6458    0.0000 C   0  0  0  0  0  0  0  0  0  0  0  0
    3.3792    2.4833    0.0000 C   0  0  0  0  0  0  0  0  0  0  0  0
    0.8750    1.4583    0.0000 O   0  5  0  0  0  0  0  0  0  0  0  0
    1.6375    0.4083    0.0000 O   0  0  0  0  0  0  0  0  0  0  0  0
    7.3875    3.2958    0.0000 C   0  0  0  0  0  0  0  0  0  0  0  0
    6.2625    3.9458    0.0000 C   0  0  0  0  0  0  0  0  0  0  0  0
    2.8500    1.2958    0.0000 C   0  0  0  0  0  0  0  0  0  0  0  0
    2.0875    2.3458    0.0000 C   0  0  0  0  0  0  0  0  0  0  0  0
    3.4542    1.7333    0.0000 C   0  0  0  0  0  0  0  0  0  0  0  0
    2.6917    2.7833    0.0000 C   0  0  0  0  0  0  0  0  0  0  0  0
    7.0125    3.9458    0.0000 C   0  0  0  0  0  0  0  0  0  0  0  0
    7.3875    1.9958    0.0000 O   0  0  0  0  0  0  0  0  0  0  0  0
    8.1375    3.2958    0.0000 O   0  0  0  0  0  0  0  0  0  0  0  0
    7.0125    1.3458    0.0000 C   0  0  0  0  0  0  0  0  0  0  0  0
    8.5125    3.9458    0.0000 C   0  0  0  0  0  0  0  0  0  0  0  0
    7.3875    0.6958    0.0000 C   0  0  0  0  0  0  0  0  0  0  0  0
  2  1  1  0  0  0  0
  3  1  2  0  0  0  0
  4  2  2  0  0  0  0
  5  8  1  0  0  0  0
  6  3  1  0  0  0  0
  7  2  1  0  0  0  0
  8 17  1  0  0  0  0
  9  7  2  0  0  0  0
 10  9  1  0  0  0  0
 11  3  1  0  0  0  0
 12  5  1  0  0  0  0
 13  5  2  0  0  0  0
 14 20  1  0  0  0  0
 15  7  1  0  0  0  0
 16 18  1  0  0  0  0
 17 19  2  0  0  0  0
 18 11  2  0  0  0  0
 19 11  1  0  0  0  0
 20 15  2  0  0  0  0
 21 10  1  0  0  0  0
 22 14  1  0  0  0  0
 23 21  1  0  0  0  0
 24 22  1  0  0  0  0
 25 23  1  0  0  0  0
  6  4  1  0  0  0  0
  8 16  2  0  0  0  0
 14 10  2  0  0  0  0
M  CHG  2   5   1  12  -1
M  END
>  <ID> (7977063)
7977063

>  <Supplier> (7977063)
ChemBridge

>  <clogP> (7977063)
3.720000000000000e+000

>  <RB> (7977063)
2

>  <tPSA> (7977063)
1.005200000000000e+002

>  <Hacc> (7977063)
7

>  <Hdon> (7977063)
0

>  <LogSw> (7977063)
-5.256000000000000e+000

>  <Group> (7977063)
2

>  <Core> (7977063)
206

$$$$
7977061
  -ISIS-  03310818282D

 29 32  0  0  0  0  0  0  0  0999 V2000
    3.7292    2.8375    0.0000 C   0  0  0  0  0  0  0  0  0  0  0  0
    4.4125    2.5333    0.0000 N   0  0  0  0  0  0  0  0  0  0  0  0
    3.8042    3.5833    0.0000 O   0  0  0  0  0  0  0  0  0  0  0  0
    4.9167    3.0958    0.0000 C   0  0  0  0  0  0  0  0  0  0  0  0
    3.0792    2.4625    0.0000 C   0  0  0  0  0  0  0  0  0  0  0  0
    4.5417    3.7458    0.0000 C   0  0  0  0  0  0  0  0  0  0  0  0
    2.4292    2.8375    0.0000 C   0  0  0  0  0  0  0  0  0  0  0  0
    5.6667    3.0958    0.0000 C   0  0  0  0  0  0  0  0  0  0  0  0
    7.1667    3.0958    0.0000 C   0  0  0  0  0  0  0  0  0  0  0  0
    3.0792    1.7125    0.0000 C   0  0  0  0  0  0  0  0  0  0  0  0
    6.7917    3.7458    0.0000 N   0  0  0  0  0  0  0  0  0  0  0  0
    6.0417    3.7458    0.0000 C   0  0  0  0  0  0  0  0  0  0  0  0
    1.7792    2.4625    0.0000 C   0  0  0  0  0  0  0  0  0  0  0  0
    8.2917    2.4458    0.0000 O   0  0  0  0  0  0  0  0  0  0  0  0
    9.0417    2.4458    0.0000 C   0  0  0  0  0  0  0  0  0  0  0  0
    6.7917    2.4458    0.0000 O   0  0  0  0  0  0  0  0  0  0  0  0
    9.4167    1.7958    0.0000 C   0  0  0  0  0  0  0  0  0  0  0  0
    4.9167    4.3875    0.0000 C   0  0  0  0  0  0  0  0  0  0  0  0
    7.9167    3.0958    0.0000 C   0  0  0  0  0  0  0  0  0  0  0  0
    2.4292    1.3375    0.0000 C   0  0  0  0  0  0  0  0  0  0  0  0
    1.7792    1.7125    0.0000 C   0  0  0  0  0  0  0  0  0  0  0  0
    5.6667    4.3875    0.0000 C   0  0  0  0  0  0  0  0  0  0  0  0
    9.0417    1.1458    0.0000 Cl  0  0  0  0  0  0  0  0  0  0  0  0
    2.4292    3.5875    0.0000 C   0  0  0  0  0  0  0  0  0  0  0  0
    9.4167    3.0958    0.0000 C   0  0  0  0  0  0  0  0  0  0  0  0
   10.1667    1.7958    0.0000 C   0  0  0  0  0  0  0  0  0  0  0  0
    1.1292    1.3375    0.0000 C   0  0  0  0  0  0  0  0  0  0  0  0
   10.1667    3.0958    0.0000 C   0  0  0  0  0  0  0  0  0  0  0  0
   10.5417    2.4458    0.0000 C   0  0  0  0  0  0  0  0  0  0  0  0
  2  1  2  0  0  0  0
  3  1  1  0  0  0  0
  4  2  1  0  0  0  0
  5  1  1  0  0  0  0
  6  3  1  0  0  0  0
  7  5  1  0  0  0  0
  8  4  1  0  0  0  0
  9 11  1  0  0  0  0
 10  5  2  0  0  0  0
 11 12  1  0  0  0  0
 12  8  2  0  0  0  0
 13  7  2  0  0  0  0
 14 19  1  0  0  0  0
 15 14  1  0  0  0  0
 16  9  2  0  0  0  0
 17 15  1  0  0  0  0
 18  6  1  0  0  0  0
 19  9  1  0  0  0  0
 20 10  1  0  0  0  0
 21 20  2  0  0  0  0
 22 18  2  0  0  0  0
 23 17  1  0  0  0  0
 24  7  1  0  0  0  0
 25 15  2  0  0  0  0
 26 17  2  0  0  0  0
 27 21  1  0  0  0  0
 28 25  1  0  0  0  0
 29 28  2  0  0  0  0
  6  4  2  0  0  0  0
 13 21  1  0  0  0  0
 22 12  1  0  0  0  0
 26 29  1  0  0  0  0
M  END
>  <ID> (7977061)
7977061

>  <Supplier> (7977061)
ChemBridge

>  <clogP> (7977061)
5.990000000000000e+000

>  <RB> (7977061)
5

>  <tPSA> (7977061)
6.436000000000001e+001

>  <Hacc> (7977061)
4

>  <Hdon> (7977061)
1

>  <LogSw> (7977061)
-7.281000000000002e+000

>  <Group> (7977061)
1

>  <Core> (7977061)
068

$$$$
6299138
  -ISIS-  03310818232D

 24 27  0  0  0  0  0  0  0  0999 V2000
   -3.6333    0.0458    0.0000 C   0  0  3  0  0  0  0  0  0  0  0  0
   -2.8208    1.4500    0.0000 C   0  0  3  0  0  0  0  0  0  0  0  0
   -3.6333    0.9833    0.0000 C   0  0  0  0  0  0  0  0  0  0  0  0
   -3.1833   -1.2042    0.0000 N   0  0  3  0  0  0  0  0  0  0  0  0
   -2.0125    0.0458    0.0000 N   0  0  3  0  0  0  0  0  0  0  0  0
   -2.0125    0.9833    0.0000 C   0  0  0  0  0  0  0  0  0  0  0  0
   -4.3458   -1.2875    0.0000 C   0  0  0  0  0  0  0  0  0  0  0  0
   -3.2000    0.6833    0.0000 C   0  0  0  0  0  0  0  0  0  0  0  0
   -2.8208   -0.4292    0.0000 C   0  0  0  0  0  0  0  0  0  0  0  0
   -2.0000   -0.7000    0.0000 C   0  0  3  0  0  0  0  0  0  0  0  0
   -0.9708   -0.8875    0.0000 C   0  0  0  0  0  0  0  0  0  0  0  0
   -2.8208    2.4208    0.0000 C   0  0  3  0  0  0  0  0  0  0  0  0
   -4.5208    0.0458    0.0000 C   0  0  3  0  0  0  0  0  0  0  0  0
   -4.5000    1.4958    0.0000 O   0  0  0  0  0  0  0  0  0  0  0  0
   -0.3208   -0.0875    0.0000 C   0  0  0  0  0  0  0  0  0  0  0  0
   -0.5958   -1.8875    0.0000 C   0  0  0  0  0  0  0  0  0  0  0  0
    1.1042   -1.2167    0.0000 C   0  0  0  0  0  0  0  0  0  0  0  0
    0.7375   -0.2542    0.0000 C   0  0  0  0  0  0  0  0  0  0  0  0
    0.4500   -2.0375    0.0000 C   0  0  0  0  0  0  0  0  0  0  0  0
    2.1542   -1.3542    0.0000 O   0  0  0  0  0  0  0  0  0  0  0  0
   -1.8833    2.8833    0.0000 C   0  0  0  0  0  0  0  0  0  0  0  0
   -4.9125    1.0125    0.0000 C   0  0  0  0  0  0  0  0  0  0  0  0
   -5.0458   -0.8667    0.0000 C   0  0  0  0  0  0  0  0  0  0  0  0
   -3.7333    2.9458    0.0000 C   0  0  0  0  0  0  0  0  0  0  0  0
  2  3  1  0  0  0  0
  3  1  1  0  0  0  0
  4  7  1  0  0  0  0
  5  9  1  0  0  0  0
  6  5  1  0  0  0  0
  7  1  1  0  0  0  0
  8  4  1  0  0  0  0
  9  1  1  0  0  0  0
 10  5  1  0  0  0  0
 11 10  1  0  0  0  0
 12  2  1  0  0  0  0
 13  1  1  0  0  0  0
 14  3  2  0  0  0  0
 15 11  1  0  0  0  0
 16 11  2  0  0  0  0
 17 19  2  0  0  0  0
 18 15  2  0  0  0  0
 19 16  1  0  0  0  0
 20 17  1  0  0  0  0
 21 12  1  0  0  0  0
 22 13  1  0  0  0  0
 23 13  1  0  0  0  0
 24 12  1  0  0  0  0
  4 10  1  0  0  0  0
  6  2  1  0  0  0  0
  8  2  1  0  0  0  0
 18 17  1  0  0  0  0
M  END
>  <ID> (6299138)
6299138

>  <Supplier> (6299138)
ChemBridge

>  <clogP> (6299138)
4.290000000000000e+000

>  <RB> (6299138)
1

>  <tPSA> (6299138)
4.378000000000000e+001

>  <Hacc> (6299138)
4

>  <Hdon> (6299138)
1

>  <LogSw> (6299138)
-3.671000000000000e+000

>  <Group> (6299138)
2

>  <Core> (6299138)
298

$$$$
7629294
  -ISIS-  03310818262D

 26 26  0  0  0  0  0  0  0  0999 V2000
    6.8625   -0.6042    0.0000 C   0  0  0  0  0  0  0  0  0  0  0  0
    6.1292   -0.4375    0.0000 C   0  0  0  0  0  0  0  0  0  0  0  0
    5.0542    2.0833    0.0000 C   0  0  0  0  0  0  0  0  0  0  0  0
    8.9542    1.3333    0.0000 C   0  0  0  0  0  0  0  0  0  0  0  0
    7.0792   -1.3167    0.0000 O   0  0  0  0  0  0  0  0  0  0  0  0
    5.9042    0.2833    0.0000 O   0  0  0  0  0  0  0  0  0  0  0  0
    5.7042    2.4583    0.0000 C   0  0  0  0  0  0  0  0  0  0  0  0
    8.9542    2.0833    0.0000 C   0  0  0  0  0  0  0  0  0  0  0  0
    9.6042    0.9583    0.0000 C   0  0  0  0  0  0  0  0  0  0  0  0
    4.4042    2.4583    0.0000 C   0  0  0  0  0  0  0  0  0  0  0  0
    5.6167   -0.9875    0.0000 O   0  0  0  0  0  0  0  0  0  0  0  0
    7.3667   -0.0542    0.0000 O   0  0  0  0  0  0  0  0  0  0  0  0
    6.3542    2.0833    0.0000 O   0  0  0  0  0  0  0  0  0  0  0  0
    8.3042    2.4583    0.0000 O   0  0  0  0  0  0  0  0  0  0  0  0
    5.0542    3.5833    0.0000 C   0  0  0  0  0  0  0  0  0  0  0  0
   10.2542    2.0833    0.0000 C   0  0  0  0  0  0  0  0  0  0  0  0
    5.0542    1.3333    0.0000 C   0  0  0  0  0  0  0  0  0  0  0  0
    8.3042    0.9583    0.0000 C   0  0  0  0  0  0  0  0  0  0  0  0
    9.6042    2.4583    0.0000 C   0  0  0  0  0  0  0  0  0  0  0  0
    5.7042    3.2083    0.0000 C   0  0  0  0  0  0  0  0  0  0  0  0
   10.2542    1.3333    0.0000 C   0  0  0  0  0  0  0  0  0  0  0  0
    4.4042    3.2083    0.0000 C   0  0  0  0  0  0  0  0  0  0  0  0
    3.7542    2.0833    0.0000 C   0  0  0  0  0  0  0  0  0  0  0  0
    9.6042    0.2083    0.0000 C   0  0  0  0  0  0  0  0  0  0  0  0
    7.0042    2.4583    0.0000 C   0  0  0  0  0  0  0  0  0  0  0  0
    7.6542    2.0833    0.0000 C   0  0  0  0  0  0  0  0  0  0  0  0
  2  1  1  0  0  0  0
  4  8  1  0  0  0  0
  5  1  2  0  0  0  0
  6  2  2  0  0  0  0
  7  3  1  0  0  0  0
  8 14  1  0  0  0  0
  9  4  2  0  0  0  0
 10  3  2  0  0  0  0
 11  2  1  0  0  0  0
 12  1  1  0  0  0  0
 13  7  1  0  0  0  0
 14 26  1  0  0  0  0
 15 22  2  0  0  0  0
 16 19  1  0  0  0  0
 17  3  1  0  0  0  0
 18  4  1  0  0  0  0
 19  8  2  0  0  0  0
 20  7  2  0  0  0  0
 21 16  2  0  0  0  0
 22 10  1  0  0  0  0
 23 10  1  0  0  0  0
 24  9  1  0  0  0  0
 25 13  1  0  0  0  0
 26 25  1  0  0  0  0
 15 20  1  0  0  0  0
 21  9  1  0  0  0  0
M  END
>  <ID> (7629294)
7629294

>  <Supplier> (7629294)
ChemBridge

>  <clogP> (7629294)
2.630000000000000e+000

>  <RB> (7629294)
1

>  <tPSA> (7629294)
9.306000000000000e+001

>  <Hacc> (7629294)
6

>  <Hdon> (7629294)
2

>  <LogSw> (7629294)
-3.418000000000000e+000

>  <Group> (7629294)
1

>  <Core> (7629294)
319

$$$$
6957175
  -ISIS-  03310818242D

 22 24  0  0  0  0  0  0  0  0999 V2000
   -1.8958   -0.9167    0.0000 C   0  0  0  0  0  0  0  0  0  0  0  0
   -2.4000   -1.8042    0.0000 C   0  0  0  0  0  0  0  0  0  0  0  0
   -0.8833   -0.9167    0.0000 S   0  0  3  0  0  0  0  0  0  0  0  0
   -3.4500   -1.8042    0.0000 C   0  0  0  0  0  0  0  0  0  0  0  0
   -2.1000   -2.7292    0.0000 N   0  0  0  0  0  0  0  0  0  0  0  0
   -2.4208   -0.0167    0.0000 C   0  0  0  0  0  0  0  0  0  0  0  0
   -2.9000   -3.3792    0.0000 S   0  0  0  0  0  0  0  0  0  0  0  0
   -3.7458   -2.7667    0.0000 N   0  0  0  0  0  0  0  0  0  0  0  0
   -3.9583   -0.9167    0.0000 C   0  0  0  0  0  0  0  0  0  0  0  0
   -3.4458   -0.0167    0.0000 C   0  0  0  0  0  0  0  0  0  0  0  0
   -0.8833   -1.9500    0.0000 O   0  0  0  0  0  0  0  0  0  0  0  0
   -0.8833    0.1000    0.0000 O   0  0  0  0  0  0  0  0  0  0  0  0
    0.1375   -0.9042    0.0000 N   0  0  0  0  0  0  0  0  0  0  0  0
    0.6292   -0.0292    0.0000 C   0  0  0  0  0  0  0  0  0  0  0  0
    2.1292    0.8958    0.0000 C   0  0  0  0  0  0  0  0  0  0  0  0
   -4.9708   -0.9292    0.0000 C   0  0  0  0  0  0  0  0  0  0  0  0
    1.6542    0.0000    0.0000 C   0  0  0  0  0  0  0  0  0  0  0  0
    3.1500    0.9500    0.0000 C   0  0  0  0  0  0  0  0  0  0  0  0
    1.6000    1.7458    0.0000 C   0  0  0  0  0  0  0  0  0  0  0  0
    2.0542    2.6333    0.0000 C   0  0  0  0  0  0  0  0  0  0  0  0
    3.6000    1.8458    0.0000 C   0  0  0  0  0  0  0  0  0  0  0  0
    3.0500    2.7083    0.0000 C   0  0  0  0  0  0  0  0  0  0  0  0
  2  1  1  0  0  0  0
  3  1  1  0  0  0  0
  4  2  1  0  0  0  0
  5  2  2  0  0  0  0
  6  1  2  0  0  0  0
  7  5  1  0  0  0  0
  8  4  2  0  0  0  0
  9 10  2  0  0  0  0
 10  6  1  0  0  0  0
 11  3  2  0  0  0  0
 12  3  2  0  0  0  0
 13  3  1  0  0  0  0
 14 13  1  0  0  0  0
 15 17  1  0  0  0  0
 16  9  1  0  0  0  0
 17 14  1  0  0  0  0
 18 15  2  0  0  0  0
 19 15  1  0  0  0  0
 20 19  2  0  0  0  0
 21 18  1  0  0  0  0
 22 20  1  0  0  0  0
  9  4  1  0  0  0  0
  7  8  1  0  0  0  0
 21 22  2  0  0  0  0
M  END
>  <ID> (6957175)
6957175

>  <Supplier> (6957175)
ChemBridge

>  <clogP> (6957175)
4.619999999999997e+000

>  <RB> (6957175)
4

>  <tPSA> (6957175)
7.194999999999997e+001

>  <Hacc> (6957175)
5

>  <Hdon> (6957175)
1

>  <LogSw> (6957175)
-5.577000000000000e+000

>  <Group> (6957175)
3

$$$$
6957178
  -ISIS-  03310818242D

 28 30  0  0  0  0  0  0  0  0999 V2000
    1.7792   -1.3125    0.0000 S   0  0  3  0  0  0  0  0  0  0  0  0
    2.4917   -0.8917    0.0000 N   0  0  3  0  0  0  0  0  0  0  0  0
    4.6292    0.3583    0.0000 C   0  0  0  0  0  0  0  0  0  0  0  0
    5.3417   -0.0542    0.0000 N   0  0  0  0  0  0  0  0  0  0  0  0
    6.0542    0.3625    0.0000 C   0  0  0  0  0  0  0  0  0  0  0  0
    1.0667   -1.7292    0.0000 C   0  0  0  0  0  0  0  0  0  0  0  0
    1.3625   -0.5917    0.0000 O   0  0  0  0  0  0  0  0  0  0  0  0
    2.1875   -2.0250    0.0000 O   0  0  0  0  0  0  0  0  0  0  0  0
    3.9125   -0.0625    0.0000 C   0  0  3  0  0  0  0  0  0  0  0  0
    6.7667   -0.0500    0.0000 C   0  0  0  0  0  0  0  0  0  0  0  0
    3.2042   -1.3042    0.0000 C   0  0  0  0  0  0  0  0  0  0  0  0
    2.4792   -0.0667    0.0000 C   0  0  0  0  0  0  0  0  0  0  0  0
    6.0500    1.1833    0.0000 C   0  0  0  0  0  0  0  0  0  0  0  0
    4.6250    1.1833    0.0000 O   0  0  0  0  0  0  0  0  0  0  0  0
    3.1917    0.3458    0.0000 C   0  0  0  0  0  0  0  0  0  0  0  0
    3.9167   -0.8875    0.0000 C   0  0  0  0  0  0  0  0  0  0  0  0
    0.3500   -1.3167    0.0000 C   0  0  0  0  0  0  0  0  0  0  0  0
    1.0667   -2.5542    0.0000 C   0  0  0  0  0  0  0  0  0  0  0  0
    7.4792    0.3708    0.0000 C   0  0  0  0  0  0  0  0  0  0  0  0
    6.7542    1.6083    0.0000 C   0  0  0  0  0  0  0  0  0  0  0  0
   -0.3625   -2.5542    0.0000 C   0  0  0  0  0  0  0  0  0  0  0  0
   -0.3625   -1.7292    0.0000 C   0  0  0  0  0  0  0  0  0  0  0  0
    0.3500   -2.9667    0.0000 C   0  0  0  0  0  0  0  0  0  0  0  0
    7.4792    1.1958    0.0000 C   0  0  0  0  0  0  0  0  0  0  0  0
   -1.0833   -2.9667    0.0000 F   0  0  0  0  0  0  0  0  0  0  0  0
    6.7792   -0.8667    0.0000 O   0  0  0  0  0  0  0  0  0  0  0  0
    6.7417    2.4333    0.0000 C   0  0  0  0  0  0  0  0  0  0  0  0
    7.4917   -1.2792    0.0000 C   0  0  0  0  0  0  0  0  0  0  0  0
  2  1  1  0  0  0  0
  3  9  1  0  0  0  0
  4  3  1  0  0  0  0
  5  4  1  0  0  0  0
  6  1  1  0  0  0  0
  7  1  2  0  0  0  0
  8  1  2  0  0  0  0
  9 15  1  0  0  0  0
 10  5  2  0  0  0  0
 11  2  1  0  0  0  0
 12  2  1  0  0  0  0
 13  5  1  0  0  0  0
 14  3  2  0  0  0  0
 15 12  1  0  0  0  0
 16 11  1  0  0  0  0
 17  6  2  0  0  0  0
 18  6  1  0  0  0  0
 19 10  1  0  0  0  0
 20 13  2  0  0  0  0
 21 23  1  0  0  0  0
 22 17  1  0  0  0  0
 23 18  2  0  0  0  0
 24 20  1  0  0  0  0
 25 21  1  0  0  0  0
 26 10  1  0  0  0  0
 27 20  1  0  0  0  0
 28 26  1  0  0  0  0
 21 22  2  0  0  0  0
  9 16  1  0  0  0  0
 19 24  2  0  0  0  0
M  END
>  <ID> (6957178)
6957178

>  <Supplier> (6957178)
ChemBridge

>  <clogP> (6957178)
2.490000000000000e+000

>  <RB> (6957178)
3

>  <tPSA> (6957178)
7.570999999999999e+001

>  <Hacc> (6957178)
5

>  <Hdon> (6957178)
1

>  <LogSw> (6957178)
-4.290000000000000e+000

>  <Group> (6957178)
3

>  <Core> (6957178)
050

$$$$
7785409
  -ISIS-  03310818272D

 35 39  0  0  0  0  0  0  0  0999 V2000
   -0.2083   -2.0042    0.0000 C   0  0  0  0  0  0  0  0  0  0  0  0
   -0.6083   -1.5792    0.0000 C   0  0  0  0  0  0  0  0  0  0  0  0
    0.2667   -1.1792    0.0000 N   0  0  3  0  0  0  0  0  0  0  0  0
   -0.3083   -1.0625    0.0000 C   0  0  0  0  0  0  0  0  0  0  0  0
   -0.3833   -2.5625    0.0000 C   0  0  0  0  0  0  0  0  0  0  0  0
    0.3292   -1.7667    0.0000 C   0  0  3  0  0  0  0  0  0  0  0  0
   -0.9500   -2.6917    0.0000 C   0  0  0  0  0  0  0  0  0  0  0  0
   -1.1708   -1.7042    0.0000 O   0  0  0  0  0  0  0  0  0  0  0  0
   -1.3458   -2.2625    0.0000 C   0  0  0  0  0  0  0  0  0  0  0  0
   -1.1250   -3.2500    0.0000 C   0  0  0  0  0  0  0  0  0  0  0  0
    0.7042   -0.7875    0.0000 C   0  0  0  0  0  0  0  0  0  0  0  0
   -1.9208   -2.3875    0.0000 C   0  0  0  0  0  0  0  0  0  0  0  0
    2.3667   -2.9417    0.0000 C   0  0  0  0  0  0  0  0  0  0  0  0
   -1.6958   -3.3792    0.0000 C   0  0  0  0  0  0  0  0  0  0  0  0
    0.8417   -2.0625    0.0000 C   0  0  0  0  0  0  0  0  0  0  0  0
   -2.0875   -2.9417    0.0000 C   0  0  0  0  0  0  0  0  0  0  0  0
   -0.5458   -0.5250    0.0000 O   0  0  0  0  0  0  0  0  0  0  0  0
    0.0250   -3.0042    0.0000 O   0  0  0  0  0  0  0  0  0  0  0  0
    1.8542   -2.6500    0.0000 C   0  0  0  0  0  0  0  0  0  0  0  0
    2.8792   -2.6500    0.0000 O   0  0  0  0  0  0  0  0  0  0  0  0
    0.8417   -2.6500    0.0000 C   0  0  0  0  0  0  0  0  0  0  0  0
    1.3500   -1.7667    0.0000 C   0  0  0  0  0  0  0  0  0  0  0  0
    1.8542   -2.0542    0.0000 C   0  0  0  0  0  0  0  0  0  0  0  0
    1.3500   -2.9417    0.0000 C   0  0  0  0  0  0  0  0  0  0  0  0
    0.5792   -0.2125    0.0000 C   0  0  0  0  0  0  0  0  0  0  0  0
    2.3667   -3.5292    0.0000 O   0  0  0  0  0  0  0  0  0  0  0  0
    1.0125    0.1833    0.0000 C   0  0  0  0  0  0  0  0  0  0  0  0
   -1.8708   -3.9292    0.0000 C   0  0  0  0  0  0  0  0  0  0  0  0
   -2.6625   -3.0667    0.0000 C   0  0  0  0  0  0  0  0  0  0  0  0
    1.8625   -3.8250    0.0000 C   0  0  0  0  0  0  0  0  0  0  0  0
    0.8875    0.7458    0.0000 C   0  0  0  0  0  0  0  0  0  0  0  0
    1.5667    0.0000    0.0000 C   0  0  0  0  0  0  0  0  0  0  0  0
    2.0000    0.3958    0.0000 C   0  0  0  0  0  0  0  0  0  0  0  0
    1.3167    1.1375    0.0000 C   0  0  0  0  0  0  0  0  0  0  0  0
    1.8750    0.9625    0.0000 C   0  0  0  0  0  0  0  0  0  0  0  0
  2  1  2  0  0  0  0
  3  6  1  0  0  0  0
  4  2  1  0  0  0  0
  5  1  1  0  0  0  0
  6  1  1  0  0  0  0
  7  5  1  0  0  0  0
  8  2  1  0  0  0  0
  9  7  2  0  0  0  0
 10  7  1  0  0  0  0
 11  3  1  0  0  0  0
 12  9  1  0  0  0  0
 13 19  1  0  0  0  0
 14 10  2  0  0  0  0
 15  6  1  0  0  0  0
 16 14  1  0  0  0  0
 17  4  2  0  0  0  0
 18  5  2  0  0  0  0
 19 23  1  0  0  0  0
 20 13  2  0  0  0  0
 21 15  2  0  0  0  0
 22 15  1  0  0  0  0
 23 22  2  0  0  0  0
 24 21  1  0  0  0  0
 25 11  1  0  0  0  0
 26 13  1  0  0  0  0
 27 25  1  0  0  0  0
 28 14  1  0  0  0  0
 29 16  1  0  0  0  0
 30 26  1  0  0  0  0
 31 27  1  0  0  0  0
 32 27  2  0  0  0  0
 33 32  1  0  0  0  0
 34 31  2  0  0  0  0
 35 33  2  0  0  0  0
  3  4  1  0  0  0  0
  9  8  1  0  0  0  0
 24 19  2  0  0  0  0
 16 12  2  0  0  0  0
 35 34  1  0  0  0  0
M  END
>  <ID> (7785409)
7785409

>  <Supplier> (7785409)
ChemBridge

>  <clogP> (7785409)
4.870000000000000e+000

>  <RB> (7785409)
5

>  <tPSA> (7785409)
7.681999999999999e+001

>  <Hacc> (7785409)
5

>  <Hdon> (7785409)
0

>  <LogSw> (7785409)
-6.767000000000000e+000

>  <Group> (7785409)
1

>  <Core> (7785409)
082

$$$$
5412031
  -ISIS-  03310818222D

 22 25  0  0  0  0  0  0  0  0999 V2000
    0.7667    2.9958    0.0000 N   0  0  3  0  0  0  0  0  0  0  0  0
    1.4500    3.3833    0.0000 C   0  0  0  0  0  0  0  0  0  0  0  0
   -1.9500    2.2083    0.0000 C   0  0  3  0  0  0  0  0  0  0  0  0
   -2.7125    1.9708    0.0000 C   0  0  3  0  0  0  0  0  0  0  0  0
   -1.9500    2.9833    0.0000 C   0  0  3  0  0  0  0  0  0  0  0  0
   -1.2708    1.8125    0.0000 N   0  0  0  0  0  0  0  0  0  0  0  0
   -3.4625    2.9208    0.0000 C   0  0  3  0  0  0  0  0  0  0  0  0
   -2.0833    3.2708    0.0000 C   0  0  3  0  0  0  0  0  0  0  0  0
   -1.3958    3.5500    0.0000 C   0  0  0  0  0  0  0  0  0  0  0  0
   -2.8000    3.1708    0.0000 C   0  0  0  0  0  0  0  0  0  0  0  0
   -2.0833    2.5000    0.0000 C   0  0  0  0  0  0  0  0  0  0  0  0
   -3.4625    2.2708    0.0000 C   0  0  0  0  0  0  0  0  0  0  0  0
    0.7667    2.2083    0.0000 C   0  0  0  0  0  0  0  0  0  0  0  0
    0.0875    3.3958    0.0000 C   0  0  0  0  0  0  0  0  0  0  0  0
    1.4500    4.1500    0.0000 O   0  0  0  0  0  0  0  0  0  0  0  0
   -2.8958    3.5500    0.0000 C   0  0  0  0  0  0  0  0  0  0  0  0
    0.0875    1.8125    0.0000 C   0  0  0  0  0  0  0  0  0  0  0  0
   -0.5958    2.9958    0.0000 C   0  0  0  0  0  0  0  0  0  0  0  0
   -0.5958    2.2125    0.0000 C   0  0  3  0  0  0  0  0  0  0  0  0
    2.1292    3.0000    0.0000 O   0  0  0  0  0  0  0  0  0  0  0  0
    2.1292    2.2208    0.0000 C   0  0  0  0  0  0  0  0  0  0  0  0
    2.8167    1.8333    0.0000 C   0  0  0  0  0  0  0  0  0  0  0  0
  2  1  1  0  0  0  0
  3  6  1  0  0  0  0
  4  3  1  0  0  0  0
  5  3  1  0  0  0  0
  6 19  1  0  0  0  0
  7 10  1  0  0  0  0
  8  9  1  0  0  0  0
  9  5  1  0  0  0  0
 10  5  1  0  0  0  0
 11  4  1  0  0  0  0
 12  4  1  0  0  0  0
 13  1  1  0  0  0  0
 14  1  1  0  0  0  0
 15  2  2  0  0  0  0
 16  7  1  0  0  0  0
 17 13  1  0  0  0  0
 18 14  1  0  0  0  0
 19 18  1  0  0  0  0
 20  2  1  0  0  0  0
 21 20  1  0  0  0  0
 22 21  1  0  0  0  0
 19 17  1  0  0  0  0
  7 12  1  0  0  0  0
  8 11  1  0  0  0  0
 16  8  1  0  0  0  0
M  END
>  <ID> (5412031)
5412031

>  <Supplier> (5412031)
ChemBridge

>  <clogP> (5412031)
2.970000000000000e+000

>  <RB> (5412031)
2

>  <tPSA> (5412031)
4.156999999999998e+001

>  <Hacc> (5412031)
3

>  <Hdon> (5412031)
1

>  <LogSw> (5412031)
-2.963000000000000e+000

>  <Group> (5412031)
3

$$$$
6391491
  -ISIS-  03310818232D

 23 24  0  0  0  0  0  0  0  0999 V2000
    0.2167    1.8083    0.0000 N   0  0  3  0  0  0  0  0  0  0  0  0
    0.2167    0.9833    0.0000 S   0  0  3  0  0  0  0  0  0  0  0  0
   -0.5083    2.2208    0.0000 C   0  0  0  0  0  0  0  0  0  0  0  0
   -1.2208    1.8083    0.0000 N   0  3  0  0  0  0  0  0  0  0  0  0
   -0.5083    3.0625    0.0000 C   0  0  0  0  0  0  0  0  0  0  0  0
    0.9292    3.0625    0.0000 N   0  0  0  0  0  0  0  0  0  0  0  0
    0.9375    2.2333    0.0000 C   0  0  0  0  0  0  0  0  0  0  0  0
    0.2167    0.1625    0.0000 C   0  0  0  0  0  0  0  0  0  0  0  0
    0.9375    0.5708    0.0000 O   0  0  0  0  0  0  0  0  0  0  0  0
   -0.4875    0.5708    0.0000 O   0  0  0  0  0  0  0  0  0  0  0  0
   -1.9333    2.2208    0.0000 O   0  5  0  0  0  0  0  0  0  0  0  0
   -1.2208    0.9833    0.0000 O   0  0  0  0  0  0  0  0  0  0  0  0
   -0.4958   -0.2417    0.0000 C   0  0  0  0  0  0  0  0  0  0  0  0
    0.9292   -0.2500    0.0000 C   0  0  0  0  0  0  0  0  0  0  0  0
    0.2167   -1.4875    0.0000 C   0  0  0  0  0  0  0  0  0  0  0  0
    0.9292   -1.0667    0.0000 C   0  0  0  0  0  0  0  0  0  0  0  0
   -0.5000   -1.0667    0.0000 C   0  0  0  0  0  0  0  0  0  0  0  0
    1.6542    1.8208    0.0000 C   0  0  0  0  0  0  0  0  0  0  0  0
    0.2167   -2.3125    0.0000 O   0  0  0  0  0  0  0  0  0  0  0  0
   -0.5000   -2.7250    0.0000 C   0  0  0  0  0  0  0  0  0  0  0  0
   -0.5083   -3.5417    0.0000 C   0  0  0  0  0  0  0  0  0  0  0  0
    0.2042   -3.9625    0.0000 C   0  0  0  0  0  0  0  0  0  0  0  0
    0.2000   -4.7875    0.0000 C   0  0  0  0  0  0  0  0  0  0  0  0
  2  1  1  0  0  0  0
  3  1  1  0  0  0  0
  4  3  1  0  0  0  0
  5  3  2  0  0  0  0
  6  7  2  0  0  0  0
  7  1  1  0  0  0  0
  8  2  1  0  0  0  0
  9  2  2  0  0  0  0
 10  2  2  0  0  0  0
 11  4  1  0  0  0  0
 12  4  2  0  0  0  0
 13  8  2  0  0  0  0
 14  8  1  0  0  0  0
 15 16  1  0  0  0  0
 16 14  2  0  0  0  0
 17 13  1  0  0  0  0
 18  7  1  0  0  0  0
 19 15  1  0  0  0  0
 20 19  1  0  0  0  0
 21 20  1  0  0  0  0
 22 21  1  0  0  0  0
 23 22  1  0  0  0  0
  6  5  1  0  0  0  0
 15 17  2  0  0  0  0
M  CHG  2   4   1  11  -1
M  END
>  <ID> (6391491)
6391491

>  <Supplier> (6391491)
ChemBridge

>  <clogP> (6391491)
3.230000000000000e+000

>  <RB> (6391491)
3

>  <tPSA> (6391491)
1.043300000000000e+002

>  <Hacc> (6391491)
7

>  <Hdon> (6391491)
0

>  <LogSw> (6391491)
-4.823000000000000e+000

>  <Group> (6391491)
2

$$$$
7187430
  -ISIS-  03310818252D

 21 22  0  0  0  0  0  0  0  0999 V2000
    5.7042   -0.9500    0.0000 C   0  0  0  0  0  0  0  0  0  0  0  0
    4.9917   -0.5375    0.0000 N   0  0  0  0  0  0  0  0  0  0  0  0
    4.2792   -0.9500    0.0000 C   0  0  0  0  0  0  0  0  0  0  0  0
    2.8500   -0.9542    0.0000 C   0  0  0  0  0  0  0  0  0  0  0  0
    5.7125   -1.7792    0.0000 C   0  0  0  0  0  0  0  0  0  0  0  0
    3.5625   -0.5375    0.0000 C   0  0  0  0  0  0  0  0  0  0  0  0
    2.1292   -0.5417    0.0000 C   0  0  0  0  0  0  0  0  0  0  0  0
    4.2792   -1.7750    0.0000 O   0  0  0  0  0  0  0  0  0  0  0  0
    6.4250   -2.1875    0.0000 C   0  0  0  0  0  0  0  0  0  0  0  0
    2.1292    0.2875    0.0000 C   0  0  0  0  0  0  0  0  0  0  0  0
    2.8417    0.7083    0.0000 O   0  0  0  0  0  0  0  0  0  0  0  0
    6.4250   -0.5292    0.0000 C   0  0  0  0  0  0  0  0  0  0  0  0
    7.1375   -0.9417    0.0000 C   0  0  0  0  0  0  0  0  0  0  0  0
    5.0000   -2.1917    0.0000 C   0  0  0  0  0  0  0  0  0  0  0  0
    7.1375   -1.7750    0.0000 C   0  0  0  0  0  0  0  0  0  0  0  0
    1.4167   -0.9542    0.0000 C   0  0  0  0  0  0  0  0  0  0  0  0
    6.4292   -3.0125    0.0000 C   0  0  0  0  0  0  0  0  0  0  0  0
    1.4167    0.7000    0.0000 C   0  0  0  0  0  0  0  0  0  0  0  0
    2.8417    1.5333    0.0000 C   0  0  0  0  0  0  0  0  0  0  0  0
    0.7042   -0.5417    0.0000 C   0  0  0  0  0  0  0  0  0  0  0  0
    0.7042    0.2875    0.0000 C   0  0  0  0  0  0  0  0  0  0  0  0
  2  1  1  0  0  0  0
  3  2  1  0  0  0  0
  4  6  2  0  0  0  0
  5  1  1  0  0  0  0
  6  3  1  0  0  0  0
  7  4  1  0  0  0  0
  8  3  2  0  0  0  0
  9  5  2  0  0  0  0
 10  7  1  0  0  0  0
 11 10  1  0  0  0  0
 12  1  2  0  0  0  0
 13 12  1  0  0  0  0
 14  5  1  0  0  0  0
 15 13  2  0  0  0  0
 16  7  2  0  0  0  0
 17  9  1  0  0  0  0
 18 10  2  0  0  0  0
 19 11  1  0  0  0  0
 20 16  1  0  0  0  0
 21 20  2  0  0  0  0
 15  9  1  0  0  0  0
 21 18  1  0  0  0  0
M  END
>  <ID> (7187430)
7187430

>  <Supplier> (7187430)
ChemBridge

>  <clogP> (7187430)
3.880000000000000e+000

>  <RB> (7187430)
3

>  <tPSA> (7187430)
3.833000000000000e+001

>  <Hacc> (7187430)
2

>  <Hdon> (7187430)
1

>  <LogSw> (7187430)
-4.566000000000000e+000

>  <Group> (7187430)
1

>  <Core> (7187430)
435

$$$$
6391494
  -ISIS-  03310818232D

 24 27  0  0  0  0  0  0  0  0999 V2000
   -0.5000   -1.4542    0.0000 C   0  0  0  0  0  0  0  0  0  0  0  0
   -0.6208   -0.6500    0.0000 C   0  0  3  0  0  0  0  0  0  0  0  0
    0.2167   -1.8500    0.0000 C   0  0  0  0  0  0  0  0  0  0  0  0
   -0.0458   -0.0792    0.0000 N   0  0  0  0  0  0  0  0  0  0  0  0
    0.9792   -1.5500    0.0000 N   0  0  0  0  0  0  0  0  0  0  0  0
   -1.3833   -0.3500    0.0000 C   0  0  0  0  0  0  0  0  0  0  0  0
    0.7542   -0.1375    0.0000 C   0  0  0  0  0  0  0  0  0  0  0  0
   -1.2000   -1.8792    0.0000 C   0  0  0  0  0  0  0  0  0  0  0  0
    1.2167   -0.8000    0.0000 C   0  0  0  0  0  0  0  0  0  0  0  0
   -1.5000    0.4333    0.0000 C   0  0  0  0  0  0  0  0  0  0  0  0
   -1.9208   -1.4875    0.0000 O   0  0  0  0  0  0  0  0  0  0  0  0
    0.2167   -2.6542    0.0000 C   0  0  0  0  0  0  0  0  0  0  0  0
   -2.2625    0.7333    0.0000 C   0  0  0  0  0  0  0  0  0  0  0  0
   -2.0000   -0.8542    0.0000 C   0  0  0  0  0  0  0  0  0  0  0  0
   -2.4000    1.5458    0.0000 O   0  0  0  0  0  0  0  0  0  0  0  0
   -1.2000   -2.6542    0.0000 C   0  0  0  0  0  0  0  0  0  0  0  0
   -0.5000   -3.0792    0.0000 C   0  0  0  0  0  0  0  0  0  0  0  0
   -2.7458   -0.5542    0.0000 C   0  0  0  0  0  0  0  0  0  0  0  0
    1.1000    0.5833    0.0000 C   0  0  0  0  0  0  0  0  0  0  0  0
    2.0167   -0.7042    0.0000 C   0  0  0  0  0  0  0  0  0  0  0  0
   -2.8833    0.2208    0.0000 C   0  0  0  0  0  0  0  0  0  0  0  0
   -1.7625    2.0500    0.0000 C   0  0  0  0  0  0  0  0  0  0  0  0
    1.9000    0.6458    0.0000 C   0  0  0  0  0  0  0  0  0  0  0  0
    2.3542    0.0125    0.0000 C   0  0  0  0  0  0  0  0  0  0  0  0
  2  1  1  0  0  0  0
  3  1  2  0  0  0  0
  4  2  1  0  0  0  0
  5  3  1  0  0  0  0
  6  2  1  0  0  0  0
  7  4  1  0  0  0  0
  8  1  1  0  0  0  0
  9  5  1  0  0  0  0
 10  6  1  0  0  0  0
 11  8  2  0  0  0  0
 12  3  1  0  0  0  0
 13 10  2  0  0  0  0
 14  6  2  0  0  0  0
 15 13  1  0  0  0  0
 16  8  1  0  0  0  0
 17 16  1  0  0  0  0
 18 14  1  0  0  0  0
 19  7  1  0  0  0  0
 20  9  1  0  0  0  0
 21 18  2  0  0  0  0
 22 15  1  0  0  0  0
 23 19  2  0  0  0  0
 24 20  2  0  0  0  0
 12 17  1  0  0  0  0
  7  9  2  0  0  0  0
 23 24  1  0  0  0  0
 13 21  1  0  0  0  0
M  END
>  <ID> (6391494)
6391494

>  <Supplier> (6391494)
ChemBridge

>  <clogP> (6391494)
2.470000000000000e+000

>  <RB> (6391494)
1

>  <tPSA> (6391494)
5.036000000000001e+001

>  <Hacc> (6391494)
2

>  <Hdon> (6391494)
2

>  <LogSw> (6391494)
-3.646000000000000e+000

>  <Group> (6391494)
3

>  <Core> (6391494)
102

$$$$
5716133
  -ISIS-  03310818222D

 33 36  0  0  0  0  0  0  0  0999 V2000
    0.9000    1.0333    0.0000 C   0  0  0  0  0  0  0  0  0  0  0  0
   -0.1000    1.6208    0.0000 C   0  0  0  0  0  0  0  0  0  0  0  0
   -0.4458    1.0333    0.0000 C   0  0  0  0  0  0  0  0  0  0  0  0
    0.5792    1.6208    0.0000 C   0  0  3  0  0  0  0  0  0  0  0  0
    0.5792    0.4500    0.0000 C   0  0  0  0  0  0  0  0  0  0  0  0
   -0.1000    0.4500    0.0000 N   0  0  0  0  0  0  0  0  0  0  0  0
   -0.4458    2.1958    0.0000 C   0  0  0  0  0  0  0  0  0  0  0  0
    1.5792    1.0333    0.0000 C   0  0  0  0  0  0  0  0  0  0  0  0
    1.1542    2.6333    0.0000 C   0  0  0  0  0  0  0  0  0  0  0  0
   -1.1125    1.0333    0.0000 C   0  0  0  0  0  0  0  0  0  0  0  0
   -1.4500    1.6208    0.0000 C   0  0  3  0  0  0  0  0  0  0  0  0
   -1.1125    2.1958    0.0000 C   0  0  0  0  0  0  0  0  0  0  0  0
   -0.1208    2.7708    0.0000 O   0  0  0  0  0  0  0  0  0  0  0  0
    0.8375    3.2125    0.0000 C   0  0  0  0  0  0  0  0  0  0  0  0
    1.9042    1.6208    0.0000 O   0  0  0  0  0  0  0  0  0  0  0  0
   -2.1125    1.6208    0.0000 C   0  0  0  0  0  0  0  0  0  0  0  0
    1.9042    0.4125    0.0000 O   0  0  0  0  0  0  0  0  0  0  0  0
    0.9167   -0.1292    0.0000 C   0  0  0  0  0  0  0  0  0  0  0  0
    0.1500    3.2208    0.0000 F   0  0  0  0  0  0  0  0  0  0  0  0
    1.8375    2.6333    0.0000 C   0  0  0  0  0  0  0  0  0  0  0  0
    3.5792   -0.1792    0.0000 O   0  0  0  0  0  0  0  0  0  0  0  0
    1.1542    3.7833    0.0000 C   0  0  0  0  0  0  0  0  0  0  0  0
   -2.4500    2.1958    0.0000 C   0  0  0  0  0  0  0  0  0  0  0  0
   -2.4500    1.0333    0.0000 C   0  0  0  0  0  0  0  0  0  0  0  0
    2.5792    0.4125    0.0000 C   0  0  0  0  0  0  0  0  0  0  0  0
    2.9042   -0.1792    0.0000 C   0  0  0  0  0  0  0  0  0  0  0  0
    3.9167   -0.7542    0.0000 C   0  0  0  0  0  0  0  0  0  0  0  0
    2.1542    3.2125    0.0000 C   0  0  0  0  0  0  0  0  0  0  0  0
    4.5875   -0.7542    0.0000 C   0  0  0  0  0  0  0  0  0  0  0  0
    1.8375    3.7833    0.0000 C   0  0  0  0  0  0  0  0  0  0  0  0
   -3.1208    2.1958    0.0000 C   0  0  0  0  0  0  0  0  0  0  0  0
   -3.1208    1.0333    0.0000 C   0  0  0  0  0  0  0  0  0  0  0  0
   -3.4625    1.6208    0.0000 C   0  0  0  0  0  0  0  0  0  0  0  0
  2  4  1  0  0  0  0
  3  6  1  0  0  0  0
  4  1  1  0  0  0  0
  5  1  2  0  0  0  0
  6  5  1  0  0  0  0
  7  2  1  0  0  0  0
  8  1  1  0  0  0  0
  9  4  1  0  0  0  0
 10  3  1  0  0  0  0
 11 10  1  0  0  0  0
 12  7  1  0  0  0  0
 13  7  2  0  0  0  0
 14  9  1  0  0  0  0
 15  8  2  0  0  0  0
 16 11  1  0  0  0  0
 17  8  1  0  0  0  0
 18  5  1  0  0  0  0
 19 14  1  0  0  0  0
 20  9  2  0  0  0  0
 21 26  1  0  0  0  0
 22 14  2  0  0  0  0
 23 16  2  0  0  0  0
 24 16  1  0  0  0  0
 25 17  1  0  0  0  0
 26 25  1  0  0  0  0
 27 21  1  0  0  0  0
 28 20  1  0  0  0  0
 29 27  1  0  0  0  0
 30 28  2  0  0  0  0
 31 23  1  0  0  0  0
 32 24  2  0  0  0  0
 33 32  1  0  0  0  0
  2  3  2  0  0  0  0
 12 11  1  0  0  0  0
 22 30  1  0  0  0  0
 33 31  2  0  0  0  0
M  END
>  <ID> (5716133)
5716133

>  <Supplier> (5716133)
ChemBridge

>  <clogP> (5716133)
4.580000000000000e+000

>  <RB> (5716133)
6

>  <tPSA> (5716133)
6.463000000000000e+001

>  <Hacc> (5716133)
4

>  <Hdon> (5716133)
1

>  <LogSw> (5716133)
-5.380000000000000e+000

>  <Group> (5716133)
1

>  <Core> (5716133)
085

$$$$
7943823
  -ISIS-  03310818272D

 27 30  0  0  0  0  0  0  0  0999 V2000
    9.7042    0.5625    0.0000 C   0  0  0  0  0  0  0  0  0  0  0  0
    9.2625   -0.0417    0.0000 O   0  0  0  0  0  0  0  0  0  0  0  0
    9.2625    1.1708    0.0000 C   0  0  0  0  0  0  0  0  0  0  0  0
   10.4542    0.5625    0.0000 C   0  0  0  0  0  0  0  0  0  0  0  0
   13.8292   -0.0875    0.0000 C   0  0  0  0  0  0  0  0  0  0  0  0
    8.5500    0.9375    0.0000 C   0  0  0  0  0  0  0  0  0  0  0  0
    8.5500    0.1875    0.0000 C   0  0  0  0  0  0  0  0  0  0  0  0
   14.2042    0.5625    0.0000 N   0  0  3  0  0  0  0  0  0  0  0  0
   10.8292   -0.0875    0.0000 N   0  0  0  0  0  0  0  0  0  0  0  0
   13.0792   -0.0875    0.0000 C   0  0  0  0  0  0  0  0  0  0  0  0
   10.8292    1.2125    0.0000 O   0  0  0  0  0  0  0  0  0  0  0  0
   14.2042   -0.7375    0.0000 O   0  0  0  0  0  0  0  0  0  0  0  0
   11.5792   -0.0875    0.0000 C   0  0  0  0  0  0  0  0  0  0  0  0
   12.7042   -0.7375    0.0000 C   0  0  0  0  0  0  0  0  0  0  0  0
   12.7042    0.5625    0.0000 C   0  0  0  0  0  0  0  0  0  0  0  0
    9.4917    1.8833    0.0000 C   0  0  0  0  0  0  0  0  0  0  0  0
   11.9542    0.5625    0.0000 C   0  0  0  0  0  0  0  0  0  0  0  0
   11.9542   -0.7375    0.0000 C   0  0  0  0  0  0  0  0  0  0  0  0
   14.9542    0.5625    0.0000 C   0  0  0  0  0  0  0  0  0  0  0  0
   13.8292    1.2125    0.0000 C   0  0  0  0  0  0  0  0  0  0  0  0
    7.9000    1.3125    0.0000 C   0  0  0  0  0  0  0  0  0  0  0  0
    7.9000   -0.1875    0.0000 C   0  0  0  0  0  0  0  0  0  0  0  0
   15.3292    1.2125    0.0000 C   0  0  0  0  0  0  0  0  0  0  0  0
   14.2042    1.8625    0.0000 C   0  0  0  0  0  0  0  0  0  0  0  0
    7.2500    0.9375    0.0000 C   0  0  0  0  0  0  0  0  0  0  0  0
    7.2500    0.1875    0.0000 C   0  0  0  0  0  0  0  0  0  0  0  0
   14.9542    1.8625    0.0000 C   0  0  0  0  0  0  0  0  0  0  0  0
  2  1  1  0  0  0  0
  3  1  2  0  0  0  0
  4  1  1  0  0  0  0
  5 10  1  0  0  0  0
  6  3  1  0  0  0  0
  7  2  1  0  0  0  0
  8  5  1  0  0  0  0
  9  4  1  0  0  0  0
 10 14  2  0  0  0  0
 11  4  2  0  0  0  0
 12  5  2  0  0  0  0
 13  9  1  0  0  0  0
 14 18  1  0  0  0  0
 15 17  2  0  0  0  0
 16  3  1  0  0  0  0
 17 13  1  0  0  0  0
 18 13  2  0  0  0  0
 19  8  1  0  0  0  0
 20  8  1  0  0  0  0
 21  6  1  0  0  0  0
 22  7  1  0  0  0  0
 23 19  1  0  0  0  0
 24 20  1  0  0  0  0
 25 21  2  0  0  0  0
 26 22  2  0  0  0  0
 27 24  1  0  0  0  0
  6  7  2  0  0  0  0
 26 25  1  0  0  0  0
 15 10  1  0  0  0  0
 23 27  1  0  0  0  0
M  END
>  <ID> (7943823)
7943823

>  <Supplier> (7943823)
ChemBridge

>  <clogP> (7943823)
3.496000000000000e+000

>  <RB> (7943823)
3

>  <tPSA> (7943823)
6.255000000000000e+001

>  <Hacc> (7943823)
3

>  <Hdon> (7943823)
1

>  <LogSw> (7943823)
-4.827999999999998e+000

>  <Group> (7943823)
3

>  <Core> (7943823)
150

$$$$
5219501
  -ISIS-  03310818212D

 29 31  0  0  0  0  0  0  0  0999 V2000
   -1.9083    0.2833    0.0000 S   0  0  3  0  0  0  0  0  0  0  0  0
   -2.7833    0.2833    0.0000 N   0  0  0  0  0  0  0  0  0  0  0  0
   -3.1708   -0.4542    0.0000 C   0  0  0  0  0  0  0  0  0  0  0  0
    1.8042    1.0208    0.0000 C   0  0  0  0  0  0  0  0  0  0  0  0
   -2.7500   -1.1667    0.0000 N   0  0  0  0  0  0  0  0  0  0  0  0
   -4.0208   -0.4667    0.0000 N   0  0  0  0  0  0  0  0  0  0  0  0
   -1.0958    0.2833    0.0000 C   0  0  0  0  0  0  0  0  0  0  0  0
    2.6500    1.0333    0.0000 C   0  0  0  0  0  0  0  0  0  0  0  0
    1.4000    0.3125    0.0000 N   0  0  0  0  0  0  0  0  0  0  0  0
   -1.9208    1.1208    0.0000 O   0  0  0  0  0  0  0  0  0  0  0  0
   -1.9125   -0.5375    0.0000 O   0  0  0  0  0  0  0  0  0  0  0  0
    3.8792    1.7708    0.0000 C   0  0  0  0  0  0  0  0  0  0  0  0
    3.0500    1.7625    0.0000 C   0  0  0  0  0  0  0  0  0  0  0  0
   -3.1833   -1.9000    0.0000 C   0  0  0  0  0  0  0  0  0  0  0  0
   -4.4458   -1.1875    0.0000 C   0  0  0  0  0  0  0  0  0  0  0  0
    4.3042    1.0500    0.0000 C   0  0  0  0  0  0  0  0  0  0  0  0
    1.4000    1.7208    0.0000 O   0  0  0  0  0  0  0  0  0  0  0  0
   -4.0333   -1.9042    0.0000 C   0  0  0  0  0  0  0  0  0  0  0  0
    3.0542    0.3125    0.0000 C   0  0  0  0  0  0  0  0  0  0  0  0
    3.9000    0.3208    0.0000 C   0  0  0  0  0  0  0  0  0  0  0  0
   -0.6625   -0.4167    0.0000 C   0  0  0  0  0  0  0  0  0  0  0  0
   -0.6708    1.0208    0.0000 C   0  0  0  0  0  0  0  0  0  0  0  0
    0.5792    0.3125    0.0000 C   0  0  0  0  0  0  0  0  0  0  0  0
    4.2875    2.4833    0.0000 F   0  0  0  0  0  0  0  0  0  0  0  0
    5.1375    1.0625    0.0000 F   0  0  0  0  0  0  0  0  0  0  0  0
    0.1875    1.0208    0.0000 C   0  0  0  0  0  0  0  0  0  0  0  0
    0.1792   -0.4042    0.0000 C   0  0  0  0  0  0  0  0  0  0  0  0
   -2.7708   -2.6292    0.0000 C   0  0  0  0  0  0  0  0  0  0  0  0
   -5.2708   -1.2042    0.0000 C   0  0  0  0  0  0  0  0  0  0  0  0
  2  1  1  0  0  0  0
  3  2  1  0  0  0  0
  4  9  1  0  0  0  0
  5  3  1  0  0  0  0
  6  3  2  0  0  0  0
  7  1  1  0  0  0  0
  8  4  1  0  0  0  0
  9 23  1  0  0  0  0
 10  1  2  0  0  0  0
 11  1  2  0  0  0  0
 12 13  1  0  0  0  0
 13  8  2  0  0  0  0
 14  5  2  0  0  0  0
 15  6  1  0  0  0  0
 16 20  1  0  0  0  0
 17  4  2  0  0  0  0
 18 15  2  0  0  0  0
 19  8  1  0  0  0  0
 20 19  2  0  0  0  0
 21  7  1  0  0  0  0
 22  7  2  0  0  0  0
 23 26  2  0  0  0  0
 24 12  1  0  0  0  0
 25 16  1  0  0  0  0
 26 22  1  0  0  0  0
 27 21  2  0  0  0  0
 28 14  1  0  0  0  0
 29 15  1  0  0  0  0
 23 27  1  0  0  0  0
 18 14  1  0  0  0  0
 12 16  2  0  0  0  0
M  END
>  <ID> (5219501)
5219501

>  <Supplier> (5219501)
ChemBridge

>  <clogP> (5219501)
3.060000000000000e+000

>  <RB> (5219501)
4

>  <tPSA> (5219501)
1.010500000000000e+002

>  <Hacc> (5219501)
5

>  <Hdon> (5219501)
2

>  <LogSw> (5219501)
-4.863000000000000e+000

>  <Group> (5219501)
3

>  <Core> (5219501)
234

$$$$
5330690
  -ISIS-  03310818212D

 20 21  0  0  0  0  0  0  0  0999 V2000
    1.4542    1.9958    0.0000 C   0  0  0  0  0  0  0  0  0  0  0  0
    0.7000    2.4333    0.0000 C   0  0  0  0  0  0  0  0  0  0  0  0
   -0.8625    0.6708    0.0000 C   0  0  0  0  0  0  0  0  0  0  0  0
   -0.0833    1.9958    0.0000 N   0  0  0  0  0  0  0  0  0  0  0  0
   -0.0833    1.1125    0.0000 N   0  0  0  0  0  0  0  0  0  0  0  0
   -0.8625   -0.2292    0.0000 C   0  0  0  0  0  0  0  0  0  0  0  0
    1.4542    1.1125    0.0000 C   0  0  0  0  0  0  0  0  0  0  0  0
    0.7000    3.3333    0.0000 O   0  0  0  0  0  0  0  0  0  0  0  0
   -1.6208    1.1125    0.0000 O   0  0  0  0  0  0  0  0  0  0  0  0
   -1.6208   -0.6667    0.0000 C   0  0  0  0  0  0  0  0  0  0  0  0
   -1.6208   -1.5667    0.0000 C   0  0  0  0  0  0  0  0  0  0  0  0
    0.6875    0.6833    0.0000 Br  0  0  0  0  0  0  0  0  0  0  0  0
   -2.4000   -2.0042    0.0000 Cl  0  0  0  0  0  0  0  0  0  0  0  0
    2.2375    2.4583    0.0000 C   0  0  0  0  0  0  0  0  0  0  0  0
   -0.0833   -0.6667    0.0000 C   0  0  0  0  0  0  0  0  0  0  0  0
   -0.0833   -1.5500    0.0000 C   0  0  0  0  0  0  0  0  0  0  0  0
    2.2375    0.6708    0.0000 C   0  0  0  0  0  0  0  0  0  0  0  0
   -0.8458   -2.0042    0.0000 C   0  0  0  0  0  0  0  0  0  0  0  0
    3.0000    2.0208    0.0000 C   0  0  0  0  0  0  0  0  0  0  0  0
    3.0000    1.1125    0.0000 C   0  0  0  0  0  0  0  0  0  0  0  0
  2  1  1  0  0  0  0
  3  5  1  0  0  0  0
  4  2  1  0  0  0  0
  5  4  1  0  0  0  0
  6  3  1  0  0  0  0
  7  1  2  0  0  0  0
  8  2  2  0  0  0  0
  9  3  2  0  0  0  0
 10  6  2  0  0  0  0
 11 10  1  0  0  0  0
 12  7  1  0  0  0  0
 13 11  1  0  0  0  0
 14  1  1  0  0  0  0
 15  6  1  0  0  0  0
 16 15  2  0  0  0  0
 17  7  1  0  0  0  0
 18 16  1  0  0  0  0
 19 14  2  0  0  0  0
 20 19  1  0  0  0  0
 20 17  2  0  0  0  0
 18 11  2  0  0  0  0
M  END
>  <ID> (5330690)
5330690

>  <Supplier> (5330690)
ChemBridge

>  <clogP> (5330690)
4.619999999999998e+000

>  <RB> (5330690)
3

>  <tPSA> (5330690)
5.820000000000000e+001

>  <Hacc> (5330690)
2

>  <Hdon> (5330690)
2

>  <LogSw> (5330690)
-5.723999999999998e+000

>  <Group> (5330690)
1

>  <Core> (5330690)
442

$$$$
6992220
  -ISIS-  03310818252D

 30 33  0  0  0  0  0  0  0  0999 V2000
   -0.9333   -1.8875    0.0000 C   0  0  0  0  0  0  0  0  0  0  0  0
   -0.1125   -1.9042    0.0000 C   0  0  0  0  0  0  0  0  0  0  0  0
   -1.4125   -1.2292    0.0000 N   0  0  0  0  0  0  0  0  0  0  0  0
   -1.4125    3.0500    0.0000 N   0  3  0  0  0  0  0  0  0  0  0  0
   -1.4125   -2.5500    0.0000 S   0  0  0  0  0  0  0  0  0  0  0  0
   -2.1708   -1.4667    0.0000 C   0  0  0  0  0  0  0  0  0  0  0  0
    0.3042   -2.6042    0.0000 N   0  0  0  0  0  0  0  0  0  0  0  0
   -2.1708   -2.2875    0.0000 C   0  0  0  0  0  0  0  0  0  0  0  0
    0.3042   -1.1875    0.0000 N   0  0  0  0  0  0  0  0  0  0  0  0
   -0.9708    2.3500    0.0000 C   0  0  0  0  0  0  0  0  0  0  0  0
   -0.1125   -0.4875    0.0000 N   0  0  0  0  0  0  0  0  0  0  0  0
   -1.0125    3.7708    0.0000 O   0  5  0  0  0  0  0  0  0  0  0  0
   -2.2333    3.0333    0.0000 O   0  0  0  0  0  0  0  0  0  0  0  0
   -0.1500    2.3500    0.0000 C   0  0  0  0  0  0  0  0  0  0  0  0
   -1.3708    1.6333    0.0000 C   0  0  0  0  0  0  0  0  0  0  0  0
    1.1292   -2.5875    0.0000 C   0  0  0  0  0  0  0  0  0  0  0  0
    0.2875    0.2125    0.0000 C   0  0  0  0  0  0  0  0  0  0  0  0
   -0.1333    0.9333    0.0000 C   0  0  0  0  0  0  0  0  0  0  0  0
    0.2667    1.6500    0.0000 C   0  0  0  0  0  0  0  0  0  0  0  0
   -0.9500    0.9333    0.0000 C   0  0  0  0  0  0  0  0  0  0  0  0
    2.7500   -2.5875    0.0000 C   0  0  0  0  0  0  0  0  0  0  0  0
    1.5292   -1.8875    0.0000 C   0  0  0  0  0  0  0  0  0  0  0  0
    1.5292   -3.2875    0.0000 C   0  0  0  0  0  0  0  0  0  0  0  0
    2.3500   -1.8875    0.0000 C   0  0  0  0  0  0  0  0  0  0  0  0
    2.3500   -3.2875    0.0000 C   0  0  0  0  0  0  0  0  0  0  0  0
   -2.8958   -1.0667    0.0000 C   0  0  0  0  0  0  0  0  0  0  0  0
   -2.8958   -2.7042    0.0000 C   0  0  0  0  0  0  0  0  0  0  0  0
    3.5667   -2.6042    0.0000 C   0  0  0  0  0  0  0  0  0  0  0  0
   -3.5958   -1.4667    0.0000 C   0  0  0  0  0  0  0  0  0  0  0  0
   -3.5958   -2.2875    0.0000 C   0  0  0  0  0  0  0  0  0  0  0  0
  2  1  1  0  0  0  0
  3  1  2  0  0  0  0
  4 10  1  0  0  0  0
  5  1  1  0  0  0  0
  6  3  1  0  0  0  0
  7  2  1  0  0  0  0
  8  5  1  0  0  0  0
  9  2  2  0  0  0  0
 10 15  1  0  0  0  0
 11  9  1  0  0  0  0
 12  4  1  0  0  0  0
 13  4  2  0  0  0  0
 14 19  1  0  0  0  0
 15 20  2  0  0  0  0
 16  7  1  0  0  0  0
 17 11  2  0  0  0  0
 18 17  1  0  0  0  0
 19 18  2  0  0  0  0
 20 18  1  0  0  0  0
 21 25  2  0  0  0  0
 22 16  1  0  0  0  0
 23 16  2  0  0  0  0
 24 22  2  0  0  0  0
 25 23  1  0  0  0  0
 26  6  1  0  0  0  0
 27  8  1  0  0  0  0
 28 21  1  0  0  0  0
 29 26  2  0  0  0  0
 30 27  2  0  0  0  0
  8  6  2  0  0  0  0
 29 30  1  0  0  0  0
 21 24  1  0  0  0  0
 10 14  2  0  0  0  0
M  CHG  2   4   1  12  -1
M  END
>  <ID> (6992220)
6992220

>  <Supplier> (6992220)
ChemBridge

>  <clogP> (6992220)
5.370000000000000e+000

>  <RB> (6992220)
5

>  <tPSA> (6992220)
9.278000000000000e+001

>  <Hacc> (6992220)
5

>  <Hdon> (6992220)
1

>  <LogSw> (6992220)
-7.205000000000000e+000

>  <Group> (6992220)
1

$$$$
9055769
  -ISIS-  03310818282D

 29 31  0  0  0  0  0  0  0  0999 V2000
    6.3750    2.2833    0.0000 N   0  0  3  0  0  0  0  0  0  0  0  0
    2.4667    1.8000    0.0000 C   0  0  0  0  0  0  0  0  0  0  0  0
    6.8167    2.8958    0.0000 C   0  0  0  0  0  0  0  0  0  0  0  0
    1.7542    2.0333    0.0000 C   0  0  0  0  0  0  0  0  0  0  0  0
    6.3750    3.4958    0.0000 N   0  0  0  0  0  0  0  0  0  0  0  0
    5.6625    2.5208    0.0000 C   0  0  0  0  0  0  0  0  0  0  0  0
    5.6625    3.2708    0.0000 N   0  0  0  0  0  0  0  0  0  0  0  0
    2.4667    1.0500    0.0000 S   0  0  0  0  0  0  0  0  0  0  0  0
    3.0792    2.2458    0.0000 N   0  0  0  0  0  0  0  0  0  0  0  0
    1.3167    1.4250    0.0000 C   0  0  0  0  0  0  0  0  0  0  0  0
    1.5250    2.7458    0.0000 C   0  0  0  0  0  0  0  0  0  0  0  0
    1.7542    0.8208    0.0000 C   0  0  0  0  0  0  0  0  0  0  0  0
    5.0542    2.0708    0.0000 S   0  0  0  0  0  0  0  0  0  0  0  0
    3.7625    1.9375    0.0000 C   0  0  0  0  0  0  0  0  0  0  0  0
    7.5667    2.8958    0.0000 C   0  0  0  0  0  0  0  0  0  0  0  0
    7.9417    2.2375    0.0000 N   0  0  0  0  0  0  0  0  0  0  0  0
    2.0292    3.3083    0.0000 O   0  0  0  0  0  0  0  0  0  0  0  0
    6.6042    1.5708    0.0000 C   0  0  0  0  0  0  0  0  0  0  0  0
    3.8417    1.1958    0.0000 O   0  0  0  0  0  0  0  0  0  0  0  0
    4.3667    2.3750    0.0000 C   0  0  0  0  0  0  0  0  0  0  0  0
    6.1042    1.0083    0.0000 C   0  0  0  0  0  0  0  0  0  0  0  0
    6.3375    0.2958    0.0000 C   0  0  0  0  0  0  0  0  0  0  0  0
    0.7917    2.9000    0.0000 O   0  0  0  0  0  0  0  0  0  0  0  0
    1.5250    0.1083    0.0000 C   0  0  0  0  0  0  0  0  0  0  0  0
    8.6917    2.2375    0.0000 C   0  0  0  0  0  0  0  0  0  0  0  0
    7.9417    3.5458    0.0000 C   0  0  0  0  0  0  0  0  0  0  0  0
    0.5625    3.6208    0.0000 C   0  0  0  0  0  0  0  0  0  0  0  0
    9.0667    2.8958    0.0000 C   0  0  0  0  0  0  0  0  0  0  0  0
    8.6917    3.5458    0.0000 C   0  0  0  0  0  0  0  0  0  0  0  0
  2  9  1  0  0  0  0
  3  1  1  0  0  0  0
  4  2  2  0  0  0  0
  5  3  2  0  0  0  0
  6  1  1  0  0  0  0
  7  6  2  0  0  0  0
  8  2  1  0  0  0  0
  9 14  1  0  0  0  0
 10  4  1  0  0  0  0
 11  4  1  0  0  0  0
 12  8  1  0  0  0  0
 13  6  1  0  0  0  0
 14 20  1  0  0  0  0
 15  3  1  0  0  0  0
 16 15  1  0  0  0  0
 17 11  2  0  0  0  0
 18  1  1  0  0  0  0
 19 14  2  0  0  0  0
 20 13  1  0  0  0  0
 21 18  1  0  0  0  0
 22 21  2  0  0  0  0
 23 11  1  0  0  0  0
 24 12  1  0  0  0  0
 25 16  2  0  0  0  0
 26 15  2  0  0  0  0
 27 23  1  0  0  0  0
 28 29  2  0  0  0  0
 29 26  1  0  0  0  0
  5  7  1  0  0  0  0
 25 28  1  0  0  0  0
 10 12  2  0  0  0  0
M  END
>  <ID> (9055769)
9055769

>  <Supplier> (9055769)
ChemBridge

>  <clogP> (9055769)
2.494000000000000e+000

>  <RB> (9055769)
8

>  <tPSA> (9055769)
9.900000000000000e+001

>  <Hacc> (9055769)
6

>  <Hdon> (9055769)
1

>  <LogSw> (9055769)
-4.738000000000000e+000

>  <Group> (9055769)
1

>  <Core> (9055769)
098

$$$$
5330696
  -ISIS-  03310818212D

 23 25  0  0  0  0  0  0  0  0999 V2000
    0.6167    1.0000    0.0000 C   0  0  0  0  0  0  0  0  0  0  0  0
   -0.3208    0.7833    0.0000 C   0  0  0  0  0  0  0  0  0  0  0  0
   -0.4208   -0.1792    0.0000 N   0  0  0  0  0  0  0  0  0  0  0  0
    0.4792   -0.5542    0.0000 N   0  0  3  0  0  0  0  0  0  0  0  0
    1.1167    0.1625    0.0000 C   0  0  0  0  0  0  0  0  0  0  0  0
    1.1000    1.8458    0.0000 C   0  0  0  0  0  0  0  0  0  0  0  0
   -1.0458    1.4208    0.0000 C   0  0  0  0  0  0  0  0  0  0  0  0
    0.5792   -1.5167    0.0000 C   0  0  0  0  0  0  0  0  0  0  0  0
    2.0792    0.0208    0.0000 O   0  0  0  0  0  0  0  0  0  0  0  0
   -0.8458    2.3625    0.0000 O   0  0  0  0  0  0  0  0  0  0  0  0
    2.0792    1.8458    0.0000 C   0  0  0  0  0  0  0  0  0  0  0  0
   -1.9708    1.1208    0.0000 O   0  0  0  0  0  0  0  0  0  0  0  0
    4.0000    1.8458    0.0000 C   0  0  0  0  0  0  0  0  0  0  0  0
    4.9792    1.8458    0.0000 Cl  0  0  0  0  0  0  0  0  0  0  0  0
    2.5542    2.6833    0.0000 C   0  0  0  0  0  0  0  0  0  0  0  0
    2.5542    1.0000    0.0000 C   0  0  0  0  0  0  0  0  0  0  0  0
    3.5167    2.6833    0.0000 C   0  0  0  0  0  0  0  0  0  0  0  0
    3.5167    1.0000    0.0000 C   0  0  0  0  0  0  0  0  0  0  0  0
    1.4542   -1.9167    0.0000 C   0  0  0  0  0  0  0  0  0  0  0  0
   -0.2208   -2.1000    0.0000 C   0  0  0  0  0  0  0  0  0  0  0  0
   -0.1208   -3.0542    0.0000 C   0  0  0  0  0  0  0  0  0  0  0  0
    1.5542   -2.9000    0.0000 C   0  0  0  0  0  0  0  0  0  0  0  0
    0.7792   -3.4542    0.0000 C   0  0  0  0  0  0  0  0  0  0  0  0
  2  1  1  0  0  0  0
  3  2  2  0  0  0  0
  4  5  1  0  0  0  0
  5  1  1  0  0  0  0
  6  1  2  0  0  0  0
  7  2  1  0  0  0  0
  8  4  1  0  0  0  0
  9  5  2  0  0  0  0
 10  7  2  0  0  0  0
 11  6  1  0  0  0  0
 12  7  1  0  0  0  0
 13 18  2  0  0  0  0
 14 13  1  0  0  0  0
 15 11  1  0  0  0  0
 16 11  2  0  0  0  0
 17 15  2  0  0  0  0
 18 16  1  0  0  0  0
 19  8  1  0  0  0  0
 20  8  2  0  0  0  0
 21 20  1  0  0  0  0
 22 19  2  0  0  0  0
 23 21  2  0  0  0  0
  4  3  1  0  0  0  0
 13 17  1  0  0  0  0
 22 23  1  0  0  0  0
M  END
>  <ID> (5330696)
5330696

>  <Supplier> (5330696)
ChemBridge

>  <clogP> (5330696)
4.730000000000000e+000

>  <RB> (5330696)
3

>  <tPSA> (5330696)
6.997000000000000e+001

>  <Hacc> (5330696)
4

>  <Hdon> (5330696)
1

>  <LogSw> (5330696)
-5.621999999999998e+000

>  <Group> (5330696)
3

>  <Core> (5330696)
046

$$$$
5139376
  -ISIS-  03310818212D

 22 24  0  0  0  0  0  0  0  0999 V2000
   -4.8500    1.5625    0.0000 N   0  3  0  0  0  0  0  0  0  0  0  0
   -3.9583    1.5625    0.0000 C   0  0  0  0  0  0  0  0  0  0  0  0
   -3.4958    0.7833    0.0000 C   0  0  0  0  0  0  0  0  0  0  0  0
   -2.5958    0.7833    0.0000 C   0  0  0  0  0  0  0  0  0  0  0  0
   -2.1333    1.5625    0.0000 C   0  0  0  0  0  0  0  0  0  0  0  0
   -1.2333    1.5625    0.0000 N   0  0  3  0  0  0  0  0  0  0  0  0
   -3.4958    2.3458    0.0000 C   0  0  0  0  0  0  0  0  0  0  0  0
   -2.5958    2.3458    0.0000 C   0  0  0  0  0  0  0  0  0  0  0  0
    0.5875    1.5625    0.0000 N   0  0  3  0  0  0  0  0  0  0  0  0
   -5.3125    2.3458    0.0000 O   0  5  0  0  0  0  0  0  0  0  0  0
   -2.1333    0.0000    0.0000 N   0  0  0  0  0  0  0  0  0  0  0  0
   -5.3125    0.7833    0.0000 O   0  0  0  0  0  0  0  0  0  0  0  0
   -0.7708    0.7833    0.0000 C   0  0  0  0  0  0  0  0  0  0  0  0
   -0.7708    2.3458    0.0000 C   0  0  0  0  0  0  0  0  0  0  0  0
    0.1500    0.7833    0.0000 C   0  0  0  0  0  0  0  0  0  0  0  0
    0.1500    2.3458    0.0000 C   0  0  0  0  0  0  0  0  0  0  0  0
   -3.9583   -0.0042    0.0000 C   0  0  0  0  0  0  0  0  0  0  0  0
    1.5042    1.5625    0.0000 C   0  0  0  0  0  0  0  0  0  0  0  0
    2.8667    2.3458    0.0000 O   0  0  0  0  0  0  0  0  0  0  0  0
   -2.5833   -0.8000    0.0000 C   0  0  0  0  0  0  0  0  0  0  0  0
    1.9500    2.3458    0.0000 C   0  0  0  0  0  0  0  0  0  0  0  0
   -3.5000   -0.8042    0.0000 C   0  0  0  0  0  0  0  0  0  0  0  0
  2  1  1  0  0  0  0
  3  2  1  0  0  0  0
  4  3  2  0  0  0  0
  5  8  2  0  0  0  0
  6  5  1  0  0  0  0
  7  2  2  0  0  0  0
  8  7  1  0  0  0  0
  9 16  1  0  0  0  0
 10  1  1  0  0  0  0
 11  4  1  0  0  0  0
 12  1  2  0  0  0  0
 13  6  1  0  0  0  0
 14  6  1  0  0  0  0
 15 13  1  0  0  0  0
 16 14  1  0  0  0  0
 17  3  1  0  0  0  0
 18  9  1  0  0  0  0
 19 21  1  0  0  0  0
 20 22  1  0  0  0  0
 21 18  1  0  0  0  0
 22 17  2  0  0  0  0
  5  4  1  0  0  0  0
 20 11  2  0  0  0  0
  9 15  1  0  0  0  0
M  CHG  2   1   1  10  -1
M  END
>  <ID> (5139376)
5139376

>  <Supplier> (5139376)
ChemBridge

>  <clogP> (5139376)
1.160000000000000e+000

>  <RB> (5139376)
3

>  <tPSA> (5139376)
8.274000000000000e+001

>  <Hacc> (5139376)
5

>  <Hdon> (5139376)
1

>  <LogSw> (5139376)
-1.778000000000000e+000

>  <Group> (5139376)
3

>  <Core> (5139376)
162

$$$$
5139373
  -ISIS-  03310818212D

 19 20  0  0  0  0  0  0  0  0999 V2000
   -2.7708    1.8708    0.0000 C   0  0  0  0  0  0  0  0  0  0  0  0
   -2.2958    2.6708    0.0000 N   0  3  0  0  0  0  0  0  0  0  0  0
   -2.3125    1.0708    0.0000 C   0  0  0  0  0  0  0  0  0  0  0  0
   -1.3958    1.0708    0.0000 N   0  0  3  0  0  0  0  0  0  0  0  0
   -3.6958    1.8708    0.0000 C   0  0  0  0  0  0  0  0  0  0  0  0
    0.4667    1.0708    0.0000 N   0  0  3  0  0  0  0  0  0  0  0  0
   -2.7708    0.2708    0.0000 C   0  0  0  0  0  0  0  0  0  0  0  0
   -1.3708    2.6708    0.0000 O   0  5  0  0  0  0  0  0  0  0  0  0
   -2.7708    3.4708    0.0000 O   0  0  0  0  0  0  0  0  0  0  0  0
   -0.9333    1.8708    0.0000 C   0  0  0  0  0  0  0  0  0  0  0  0
   -0.9333    0.2708    0.0000 C   0  0  0  0  0  0  0  0  0  0  0  0
   -4.1583    1.0708    0.0000 C   0  0  0  0  0  0  0  0  0  0  0  0
    0.0042    1.8708    0.0000 C   0  0  0  0  0  0  0  0  0  0  0  0
    0.0042    0.2708    0.0000 C   0  0  0  0  0  0  0  0  0  0  0  0
   -3.6958    0.2708    0.0000 C   0  0  0  0  0  0  0  0  0  0  0  0
   -5.0708    1.0958    0.0000 Cl  0  0  0  0  0  0  0  0  0  0  0  0
    1.3875    1.0958    0.0000 C   0  0  0  0  0  0  0  0  0  0  0  0
    2.7667    1.9125    0.0000 O   0  0  0  0  0  0  0  0  0  0  0  0
    1.8292    1.8958    0.0000 C   0  0  0  0  0  0  0  0  0  0  0  0
  2  1  1  0  0  0  0
  3  1  2  0  0  0  0
  4  3  1  0  0  0  0
  5  1  1  0  0  0  0
  6 14  1  0  0  0  0
  7  3  1  0  0  0  0
  8  2  1  0  0  0  0
  9  2  2  0  0  0  0
 10  4  1  0  0  0  0
 11  4  1  0  0  0  0
 12  5  2  0  0  0  0
 13 10  1  0  0  0  0
 14 11  1  0  0  0  0
 15 12  1  0  0  0  0
 16 12  1  0  0  0  0
 17  6  1  0  0  0  0
 18 19  1  0  0  0  0
 19 17  1  0  0  0  0
 15  7  2  0  0  0  0
  6 13  1  0  0  0  0
M  CHG  2   2   1   8  -1
M  END
>  <ID> (5139373)
5139373

>  <Supplier> (5139373)
ChemBridge

>  <clogP> (5139373)
1.640000000000000e+000

>  <RB> (5139373)
3

>  <tPSA> (5139373)
6.984999999999998e+001

>  <Hacc> (5139373)
4

>  <Hdon> (5139373)
1

>  <LogSw> (5139373)
-2.067000000000000e+000

>  <Group> (5139373)
2

>  <Core> (5139373)
162

$$$$
5139370
  -ISIS-  03310818212D

 18 19  0  0  0  0  0  0  0  0999 V2000
   -5.1458    1.1458    0.0000 N   0  3  0  0  0  0  0  0  0  0  0  0
   -1.4125    1.1833    0.0000 N   0  0  3  0  0  0  0  0  0  0  0  0
   -4.1958    1.1625    0.0000 C   0  0  0  0  0  0  0  0  0  0  0  0
    0.4542    1.1833    0.0000 N   0  0  3  0  0  0  0  0  0  0  0  0
   -5.6208    1.9333    0.0000 O   0  5  0  0  0  0  0  0  0  0  0  0
   -2.3333    1.1833    0.0000 C   0  0  0  0  0  0  0  0  0  0  0  0
   -5.6000    0.3125    0.0000 O   0  0  0  0  0  0  0  0  0  0  0  0
   -0.9458    0.3708    0.0000 C   0  0  0  0  0  0  0  0  0  0  0  0
   -0.9458    1.9833    0.0000 C   0  0  0  0  0  0  0  0  0  0  0  0
   -3.7125    0.3625    0.0000 C   0  0  0  0  0  0  0  0  0  0  0  0
   -3.7208    1.9625    0.0000 C   0  0  0  0  0  0  0  0  0  0  0  0
   -2.8000    0.3708    0.0000 C   0  0  0  0  0  0  0  0  0  0  0  0
   -2.8125    1.9625    0.0000 C   0  0  0  0  0  0  0  0  0  0  0  0
   -0.0125    0.3708    0.0000 C   0  0  0  0  0  0  0  0  0  0  0  0
   -0.0208    1.9625    0.0000 C   0  0  0  0  0  0  0  0  0  0  0  0
    1.4042    1.2125    0.0000 C   0  0  0  0  0  0  0  0  0  0  0  0
    2.8167    0.4000    0.0000 O   0  0  0  0  0  0  0  0  0  0  0  0
    1.8875    0.4000    0.0000 C   0  0  0  0  0  0  0  0  0  0  0  0
  2  6  1  0  0  0  0
  3  1  1  0  0  0  0
  4 15  1  0  0  0  0
  5  1  1  0  0  0  0
  6 13  2  0  0  0  0
  7  1  2  0  0  0  0
  8  2  1  0  0  0  0
  9  2  1  0  0  0  0
 10  3  1  0  0  0  0
 11  3  2  0  0  0  0
 12 10  2  0  0  0  0
 13 11  1  0  0  0  0
 14  8  1  0  0  0  0
 15  9  1  0  0  0  0
 16  4  1  0  0  0  0
 17 18  1  0  0  0  0
 18 16  1  0  0  0  0
  6 12  1  0  0  0  0
 14  4  1  0  0  0  0
M  CHG  2   1   1   5  -1
M  END
>  <ID> (5139370)
5139370

>  <Supplier> (5139370)
ChemBridge

>  <clogP> (5139370)
1.070000000000000e+000

>  <RB> (5139370)
3

>  <tPSA> (5139370)
6.984999999999998e+001

>  <Hacc> (5139370)
4

>  <Hdon> (5139370)
1

>  <LogSw> (5139370)
-1.329000000000000e+000

>  <Group> (5139370)
2

>  <Core> (5139370)
162

$$$$
6509311
  -ISIS-  03310818242D

 24 26  0  0  0  0  0  0  0  0999 V2000
   -0.5708    0.2958    0.0000 C   0  0  0  0  0  0  0  0  0  0  0  0
   -1.5708    0.9833    0.0000 C   0  0  3  0  0  0  0  0  0  0  0  0
   -0.5708   -0.9042    0.0000 N   0  0  0  0  0  0  0  0  0  0  0  0
    0.5000    0.9208    0.0000 O   0  0  0  0  0  0  0  0  0  0  0  0
   -2.5958    0.4000    0.0000 C   0  0  0  0  0  0  0  0  0  0  0  0
   -1.5708    3.4208    0.0000 O   0  0  0  0  0  0  0  0  0  0  0  0
    0.4792   -1.5292    0.0000 C   0  0  3  0  0  0  0  0  0  0  0  0
    1.6042   -0.9500    0.0000 C   0  0  0  0  0  0  0  0  0  0  0  0
    2.6875   -1.5542    0.0000 C   0  0  0  0  0  0  0  0  0  0  0  0
   -0.5708    1.5958    0.0000 C   0  0  0  0  0  0  0  0  0  0  0  0
   -2.6333    1.5958    0.0000 C   0  0  0  0  0  0  0  0  0  0  0  0
   -0.5708    2.8000    0.0000 C   0  0  0  0  0  0  0  0  0  0  0  0
   -2.6333    2.8000    0.0000 C   0  0  0  0  0  0  0  0  0  0  0  0
   -3.7958    0.9833    0.0000 C   0  0  0  0  0  0  0  0  0  0  0  0
   -2.5958   -0.8667    0.0000 C   0  0  0  0  0  0  0  0  0  0  0  0
    0.4792   -2.7542    0.0000 C   0  0  0  0  0  0  0  0  0  0  0  0
    2.6875   -2.8000    0.0000 C   0  0  0  0  0  0  0  0  0  0  0  0
    3.7667   -0.9500    0.0000 C   0  0  0  0  0  0  0  0  0  0  0  0
   -4.8958    0.3458    0.0000 C   0  0  0  0  0  0  0  0  0  0  0  0
   -3.7333   -1.5292    0.0000 C   0  0  0  0  0  0  0  0  0  0  0  0
    4.8542   -1.5792    0.0000 C   0  0  0  0  0  0  0  0  0  0  0  0
    3.7542   -3.4167    0.0000 C   0  0  0  0  0  0  0  0  0  0  0  0
   -4.8958   -0.8875    0.0000 C   0  0  0  0  0  0  0  0  0  0  0  0
    4.8667   -2.8167    0.0000 C   0  0  0  0  0  0  0  0  0  0  0  0
  2  1  1  0  0  0  0
  3  1  1  0  0  0  0
  4  1  2  0  0  0  0
  5  2  1  0  0  0  0
  6 13  1  0  0  0  0
  7  3  1  0  0  0  0
  8  7  1  0  0  0  0
  9  8  1  0  0  0  0
 10  2  1  0  0  0  0
 11  2  1  0  0  0  0
 12 10  1  0  0  0  0
 13 11  1  0  0  0  0
 14  5  2  0  0  0  0
 15  5  1  0  0  0  0
 16  7  1  0  0  0  0
 17  9  2  0  0  0  0
 18  9  1  0  0  0  0
 19 14  1  0  0  0  0
 20 15  2  0  0  0  0
 21 18  2  0  0  0  0
 22 17  1  0  0  0  0
 23 20  1  0  0  0  0
 24 21  1  0  0  0  0
 12  6  1  0  0  0  0
 19 23  2  0  0  0  0
 24 22  2  0  0  0  0
M  END
>  <ID> (6509311)
6509311

>  <Supplier> (6509311)
ChemBridge

>  <clogP> (6509311)
2.710000000000000e+000

>  <RB> (6509311)
5

>  <tPSA> (6509311)
3.833000000000000e+001

>  <Hacc> (6509311)
2

>  <Hdon> (6509311)
1

>  <LogSw> (6509311)
-3.873000000000000e+000

>  <Group> (6509311)
3

>  <Core> (6509311)
288

$$$$
6509310
  -ISIS-  03310818242D

 34 36  0  0  0  0  0  0  0  0999 V2000
    2.4917    0.0750    0.0000 S   0  0  3  0  0  0  0  0  0  0  0  0
    2.4917   -0.7500    0.0000 N   0  0  3  0  0  0  0  0  0  0  0  0
    1.7792    0.4875    0.0000 C   0  0  0  0  0  0  0  0  0  0  0  0
    3.2125   -1.1542    0.0000 C   0  0  0  0  0  0  0  0  0  0  0  0
    3.9250   -0.7417    0.0000 C   0  0  0  0  0  0  0  0  0  0  0  0
    1.0625    0.0750    0.0000 C   0  0  0  0  0  0  0  0  0  0  0  0
    4.6417   -1.1542    0.0000 N   0  0  0  0  0  0  0  0  0  0  0  0
    4.6417   -1.9792    0.0000 C   0  0  0  0  0  0  0  0  0  0  0  0
    3.2042    0.4958    0.0000 O   0  0  0  0  0  0  0  0  0  0  0  0
    1.7917   -0.3542    0.0000 O   0  0  0  0  0  0  0  0  0  0  0  0
    5.3542   -2.3875    0.0000 C   0  0  0  0  0  0  0  0  0  0  0  0
    0.3500    0.4875    0.0000 C   0  0  0  0  0  0  0  0  0  0  0  0
    1.7792   -1.1625    0.0000 C   0  0  0  0  0  0  0  0  0  0  0  0
    0.3500    1.3125    0.0000 C   0  0  0  0  0  0  0  0  0  0  0  0
    1.7792    1.3208    0.0000 C   0  0  0  0  0  0  0  0  0  0  0  0
    3.9250    0.0833    0.0000 O   0  0  0  0  0  0  0  0  0  0  0  0
    5.3542   -3.2042    0.0000 C   0  0  0  0  0  0  0  0  0  0  0  0
    1.0625    1.7333    0.0000 C   0  0  0  0  0  0  0  0  0  0  0  0
    1.0667   -0.7417    0.0000 C   0  0  0  0  0  0  0  0  0  0  0  0
    1.7875   -1.9792    0.0000 C   0  0  0  0  0  0  0  0  0  0  0  0
    0.3542   -1.9875    0.0000 C   0  0  0  0  0  0  0  0  0  0  0  0
   -0.3708    0.0833    0.0000 O   0  0  0  0  0  0  0  0  0  0  0  0
    0.3542   -1.1542    0.0000 C   0  0  0  0  0  0  0  0  0  0  0  0
    1.0792   -2.3917    0.0000 C   0  0  0  0  0  0  0  0  0  0  0  0
   -0.3708    1.7333    0.0000 O   0  0  0  0  0  0  0  0  0  0  0  0
    3.9292   -2.3917    0.0000 C   0  0  0  0  0  0  0  0  0  0  0  0
   -0.3500   -2.4000    0.0000 O   0  0  0  0  0  0  0  0  0  0  0  0
    3.9292   -3.2167    0.0000 C   0  0  0  0  0  0  0  0  0  0  0  0
    6.0667   -1.9667    0.0000 C   0  0  0  0  0  0  0  0  0  0  0  0
    4.6417   -3.6250    0.0000 C   0  0  0  0  0  0  0  0  0  0  0  0
    6.0750   -3.6167    0.0000 C   0  0  0  0  0  0  0  0  0  0  0  0
   -0.3708   -0.7417    0.0000 C   0  0  0  0  0  0  0  0  0  0  0  0
   -1.0833    1.3208    0.0000 C   0  0  0  0  0  0  0  0  0  0  0  0
   -0.3500   -3.2250    0.0000 C   0  0  0  0  0  0  0  0  0  0  0  0
  2  1  1  0  0  0  0
  3  1  1  0  0  0  0
  4  2  1  0  0  0  0
  5  4  1  0  0  0  0
  6  3  2  0  0  0  0
  7  5  1  0  0  0  0
  8  7  1  0  0  0  0
  9  1  2  0  0  0  0
 10  1  2  0  0  0  0
 11  8  1  0  0  0  0
 12  6  1  0  0  0  0
 13  2  1  0  0  0  0
 14 18  1  0  0  0  0
 15  3  1  0  0  0  0
 16  5  2  0  0  0  0
 17 11  2  0  0  0  0
 18 15  2  0  0  0  0
 19 13  2  0  0  0  0
 20 13  1  0  0  0  0
 21 24  1  0  0  0  0
 22 12  1  0  0  0  0
 23 19  1  0  0  0  0
 24 20  2  0  0  0  0
 25 14  1  0  0  0  0
 26  8  2  0  0  0  0
 27 21  1  0  0  0  0
 28 26  1  0  0  0  0
 29 11  1  0  0  0  0
 30 28  2  0  0  0  0
 31 17  1  0  0  0  0
 32 22  1  0  0  0  0
 33 25  1  0  0  0  0
 34 27  1  0  0  0  0
 12 14  2  0  0  0  0
 21 23  2  0  0  0  0
 30 17  1  0  0  0  0
M  END
>  <ID> (6509310)
6509310

>  <Supplier> (6509310)
ChemBridge

>  <clogP> (6509310)
3.930000000000000e+000

>  <RB> (6509310)
5

>  <tPSA> (6509310)
9.417000000000000e+001

>  <Hacc> (6509310)
6

>  <Hdon> (6509310)
1

>  <LogSw> (6509310)
-6.088000000000000e+000

>  <Group> (6509310)
3

>  <Core> (6509310)
084

$$$$
5658720
  -ISIS-  03310818222D

 16 18  0  0  0  0  0  0  0  0999 V2000
   -1.0625    1.4208    0.0000 C   0  0  0  0  0  0  0  0  0  0  0  0
   -1.4458    1.9625    0.0000 N   0  0  3  0  0  0  0  0  0  0  0  0
   -0.4458    1.6458    0.0000 N   0  0  0  0  0  0  0  0  0  0  0  0
   -1.4458    0.9000    0.0000 N   0  0  3  0  0  0  0  0  0  0  0  0
   -1.0625    2.4833    0.0000 N   0  0  0  0  0  0  0  0  0  0  0  0
   -2.0625    1.7625    0.0000 C   0  0  0  0  0  0  0  0  0  0  0  0
   -2.0625    1.1000    0.0000 C   0  0  0  0  0  0  0  0  0  0  0  0
   -0.4458    2.2833    0.0000 C   0  0  0  0  0  0  0  0  0  0  0  0
   -2.1458   -0.7375    0.0000 N   0  0  0  0  0  0  0  0  0  0  0  0
   -1.7000   -0.2375    0.0000 C   0  0  0  0  0  0  0  0  0  0  0  0
   -1.2458    0.2458    0.0000 C   0  0  0  0  0  0  0  0  0  0  0  0
   -2.6458    2.0833    0.0000 C   0  0  0  0  0  0  0  0  0  0  0  0
   -2.6458    0.7625    0.0000 C   0  0  0  0  0  0  0  0  0  0  0  0
    0.1167    2.6625    0.0000 C   0  0  0  0  0  0  0  0  0  0  0  0
   -3.2000    1.7625    0.0000 C   0  0  0  0  0  0  0  0  0  0  0  0
   -3.2000    1.1000    0.0000 C   0  0  0  0  0  0  0  0  0  0  0  0
  2  1  1  0  0  0  0
  3  1  2  0  0  0  0
  4  1  1  0  0  0  0
  5  2  1  0  0  0  0
  6  2  1  0  0  0  0
  7  4  1  0  0  0  0
  8  3  1  0  0  0  0
  9 10  3  0  0  0  0
 10 11  1  0  0  0  0
 11  4  1  0  0  0  0
 12  6  1  0  0  0  0
 13  7  1  0  0  0  0
 14  8  1  0  0  0  0
 15 12  2  0  0  0  0
 16 13  2  0  0  0  0
  6  7  2  0  0  0  0
  8  5  2  0  0  0  0
 15 16  1  0  0  0  0
M  END
>  <ID> (5658720)
5658720

>  <Supplier> (5658720)
ChemBridge

>  <clogP> (5658720)
1.400000000000000e+000

>  <RB> (5658720)
1

>  <tPSA> (5658720)
5.891000000000000e+001

>  <Hacc> (5658720)
5

>  <Hdon> (5658720)
0

>  <LogSw> (5658720)
-3.311999999999999e+000

>  <Group> (5658720)
3

>  <Core> (5658720)
130

$$$$
5658721
  -ISIS-  03310818222D

 37 40  0  0  0  0  0  0  0  0999 V2000
   -1.4625    0.1208    0.0000 C   0  0  0  0  0  0  0  0  0  0  0  0
   -1.4833   -0.5500    0.0000 C   0  0  0  0  0  0  0  0  0  0  0  0
   -0.8625    1.1208    0.0000 S   0  0  3  0  0  0  0  0  0  0  0  0
   -2.1000    0.3208    0.0000 C   0  0  0  0  0  0  0  0  0  0  0  0
   -2.4833   -0.2042    0.0000 N   0  0  3  0  0  0  0  0  0  0  0  0
   -0.8833    0.4625    0.0000 N   0  0  3  0  0  0  0  0  0  0  0  0
   -2.1000   -0.7500    0.0000 N   0  0  3  0  0  0  0  0  0  0  0  0
   -0.3000    0.1208    0.0000 C   0  0  0  0  0  0  0  0  0  0  0  0
    0.3000    0.4458    0.0000 C   0  0  0  0  0  0  0  0  0  0  0  0
   -0.1833    1.1000    0.0000 O   0  0  0  0  0  0  0  0  0  0  0  0
   -1.5208    1.1458    0.0000 O   0  0  0  0  0  0  0  0  0  0  0  0
   -0.8458    1.8000    0.0000 C   0  0  0  0  0  0  0  0  0  0  0  0
   -0.9458   -0.9667    0.0000 O   0  0  0  0  0  0  0  0  0  0  0  0
   -2.3000   -1.3667    0.0000 C   0  0  0  0  0  0  0  0  0  0  0  0
    0.8667    0.1208    0.0000 N   0  0  0  0  0  0  0  0  0  0  0  0
    0.3000    1.1208    0.0000 O   0  0  0  0  0  0  0  0  0  0  0  0
   -3.1458   -0.2292    0.0000 C   0  0  0  0  0  0  0  0  0  0  0  0
   -2.3208    0.9833    0.0000 C   0  0  0  0  0  0  0  0  0  0  0  0
    1.4292    0.4625    0.0000 C   0  0  0  0  0  0  0  0  0  0  0  0
    1.4167    1.1208    0.0000 C   0  0  0  0  0  0  0  0  0  0  0  0
    1.4042    2.4583    0.0000 C   0  0  0  0  0  0  0  0  0  0  0  0
    0.8500    1.4500    0.0000 C   0  0  0  0  0  0  0  0  0  0  0  0
    2.0000    1.4625    0.0000 C   0  0  0  0  0  0  0  0  0  0  0  0
    0.8500    2.1208    0.0000 C   0  0  0  0  0  0  0  0  0  0  0  0
    1.9792    2.1208    0.0000 C   0  0  0  0  0  0  0  0  0  0  0  0
    1.4000    3.1208    0.0000 O   0  0  0  0  0  0  0  0  0  0  0  0
   -0.2625    2.1208    0.0000 C   0  0  0  0  0  0  0  0  0  0  0  0
   -1.4000    2.1458    0.0000 C   0  0  0  0  0  0  0  0  0  0  0  0
   -2.9625   -1.5292    0.0000 C   0  0  0  0  0  0  0  0  0  0  0  0
   -1.8625   -1.8667    0.0000 C   0  0  0  0  0  0  0  0  0  0  0  0
    2.0000    3.4708    0.0000 C   0  0  0  0  0  0  0  0  0  0  0  0
   -1.4000    2.7833    0.0000 C   0  0  0  0  0  0  0  0  0  0  0  0
   -3.1625   -2.1500    0.0000 C   0  0  0  0  0  0  0  0  0  0  0  0
   -2.0833   -2.5000    0.0000 C   0  0  0  0  0  0  0  0  0  0  0  0
   -0.2625    2.8000    0.0000 C   0  0  0  0  0  0  0  0  0  0  0  0
   -2.7000   -2.6500    0.0000 C   0  0  0  0  0  0  0  0  0  0  0  0
   -0.8458    3.1208    0.0000 C   0  0  0  0  0  0  0  0  0  0  0  0
  2  1  1  0  0  0  0
  3  6  1  0  0  0  0
  4  1  2  0  0  0  0
  5  4  1  0  0  0  0
  6  1  1  0  0  0  0
  7  2  1  0  0  0  0
  8  6  1  0  0  0  0
  9  8  1  0  0  0  0
 10  3  2  0  0  0  0
 11  3  2  0  0  0  0
 12  3  1  0  0  0  0
 13  2  2  0  0  0  0
 14  7  1  0  0  0  0
 15  9  1  0  0  0  0
 16  9  2  0  0  0  0
 17  5  1  0  0  0  0
 18  4  1  0  0  0  0
 19 15  1  0  0  0  0
 20 19  1  0  0  0  0
 21 25  2  0  0  0  0
 22 20  1  0  0  0  0
 23 20  2  0  0  0  0
 24 22  2  0  0  0  0
 25 23  1  0  0  0  0
 26 21  1  0  0  0  0
 27 12  1  0  0  0  0
 28 12  2  0  0  0  0
 29 14  1  0  0  0  0
 30 14  2  0  0  0  0
 31 26  1  0  0  0  0
 32 28  1  0  0  0  0
 33 29  2  0  0  0  0
 34 30  1  0  0  0  0
 35 27  2  0  0  0  0
 36 34  2  0  0  0  0
 37 32  2  0  0  0  0
  7  5  1  0  0  0  0
 35 37  1  0  0  0  0
 33 36  1  0  0  0  0
 24 21  1  0  0  0  0
M  END
>  <ID> (5658721)
5658721

>  <Supplier> (5658721)
ChemBridge

>  <clogP> (5658721)
5.230000000000000e+000

>  <RB> (5658721)
7

>  <tPSA> (5658721)
1.026400000000000e+002

>  <Hacc> (5658721)
5

>  <Hdon> (5658721)
1

>  <LogSw> (5658721)
-7.460000000000000e+000

>  <Group> (5658721)
1

>  <Core> (5658721)
084

$$$$
5658722
  -ISIS-  03310818222D

 25 27  0  0  0  0  0  0  0  0999 V2000
    9.8167    1.4833    0.0000 C   0  0  0  0  0  0  0  0  0  0  0  0
   10.5667    1.4833    0.0000 C   0  0  0  0  0  0  0  0  0  0  0  0
    8.3167    2.7833    0.0000 N   0  3  0  0  0  0  0  0  0  0  0  0
   10.9500    0.8458    0.0000 N   0  0  3  0  0  0  0  0  0  0  0  0
    9.4500    2.1333    0.0000 C   0  0  0  0  0  0  0  0  0  0  0  0
   11.7000   -0.4500    0.0000 N   0  0  3  0  0  0  0  0  0  0  0  0
    8.7000    2.1333    0.0000 C   0  0  0  0  0  0  0  0  0  0  0  0
    9.4500    0.8458    0.0000 C   0  0  0  0  0  0  0  0  0  0  0  0
    8.7000    3.4333    0.0000 O   0  5  0  0  0  0  0  0  0  0  0  0
   12.0792   -1.1000    0.0000 C   0  0  0  0  0  0  0  0  0  0  0  0
    7.5667    2.7833    0.0000 O   0  0  0  0  0  0  0  0  0  0  0  0
   10.9500    2.1333    0.0000 O   0  0  0  0  0  0  0  0  0  0  0  0
   11.7000    0.8458    0.0000 C   0  0  0  0  0  0  0  0  0  0  0  0
   10.5792    0.1833    0.0000 C   0  0  0  0  0  0  0  0  0  0  0  0
   12.0792    0.1958    0.0000 C   0  0  0  0  0  0  0  0  0  0  0  0
   10.9500   -0.4500    0.0000 C   0  0  0  0  0  0  0  0  0  0  0  0
    8.3167    1.4833    0.0000 C   0  0  0  0  0  0  0  0  0  0  0  0
    8.7000    0.8458    0.0000 C   0  0  0  0  0  0  0  0  0  0  0  0
   11.7042   -1.7500    0.0000 C   0  0  0  0  0  0  0  0  0  0  0  0
   12.8292   -1.0792    0.0000 C   0  0  0  0  0  0  0  0  0  0  0  0
    9.8167    0.1958    0.0000 Cl  0  0  0  0  0  0  0  0  0  0  0  0
   12.8500   -2.3792    0.0000 C   0  0  0  0  0  0  0  0  0  0  0  0
   13.2000   -1.7292    0.0000 C   0  0  0  0  0  0  0  0  0  0  0  0
   12.1000   -2.3792    0.0000 C   0  0  0  0  0  0  0  0  0  0  0  0
   13.2167   -3.0292    0.0000 F   0  0  0  0  0  0  0  0  0  0  0  0
  2  1  1  0  0  0  0
  3  7  1  0  0  0  0
  4  2  1  0  0  0  0
  5  1  2  0  0  0  0
  6 16  1  0  0  0  0
  7  5  1  0  0  0  0
  8  1  1  0  0  0  0
  9  3  1  0  0  0  0
 10  6  1  0  0  0  0
 11  3  2  0  0  0  0
 12  2  2  0  0  0  0
 13  4  1  0  0  0  0
 14  4  1  0  0  0  0
 15 13  1  0  0  0  0
 16 14  1  0  0  0  0
 17 18  1  0  0  0  0
 18  8  2  0  0  0  0
 19 10  2  0  0  0  0
 20 10  1  0  0  0  0
 21  8  1  0  0  0  0
 22 23  1  0  0  0  0
 23 20  2  0  0  0  0
 24 19  1  0  0  0  0
 25 22  1  0  0  0  0
  7 17  2  0  0  0  0
  6 15  1  0  0  0  0
 24 22  2  0  0  0  0
M  CHG  2   3   1   9  -1
M  END
>  <ID> (5658722)
5658722

>  <Supplier> (5658722)
ChemBridge

>  <clogP> (5658722)
2.900000000000000e+000

>  <RB> (5658722)
2

>  <tPSA> (5658722)
6.669000000000000e+001

>  <Hacc> (5658722)
3

>  <Hdon> (5658722)
0

>  <LogSw> (5658722)
-4.719000000000000e+000

>  <Group> (5658722)
1

>  <Core> (5658722)
158

$$$$
6157584
  -ISIS-  03310818232D

 21 22  0  0  0  0  0  0  0  0999 V2000
    3.7375    0.3000    0.0000 C   0  0  0  0  0  0  0  0  0  0  0  0
    4.4500   -0.9167    0.0000 C   0  0  0  0  0  0  0  0  0  0  0  0
    4.4500    0.7208    0.0000 O   0  0  0  0  0  0  0  0  0  0  0  0
    5.1542    0.3000    0.0000 C   0  0  0  0  0  0  0  0  0  0  0  0
    3.7375   -0.5042    0.0000 C   0  0  0  0  0  0  0  0  0  0  0  0
    5.1542   -0.5042    0.0000 C   0  0  0  0  0  0  0  0  0  0  0  0
    0.1500    0.7125    0.0000 C   0  0  0  0  0  0  0  0  0  0  0  0
    3.0167    0.7208    0.0000 C   0  0  0  0  0  0  0  0  0  0  0  0
    3.0167   -0.9167    0.0000 C   0  0  0  0  0  0  0  0  0  0  0  0
   -0.5500    0.3000    0.0000 N   0  0  3  0  0  0  0  0  0  0  0  0
    5.8875    0.7208    0.0000 O   0  0  0  0  0  0  0  0  0  0  0  0
    0.8667    0.3000    0.0000 C   0  0  0  0  0  0  0  0  0  0  0  0
    0.1500    1.5458    0.0000 O   0  0  0  0  0  0  0  0  0  0  0  0
    2.3042    0.3000    0.0000 C   0  0  0  0  0  0  0  0  0  0  0  0
    1.5875    0.7208    0.0000 O   0  0  0  0  0  0  0  0  0  0  0  0
    2.3042   -0.5042    0.0000 C   0  0  0  0  0  0  0  0  0  0  0  0
    4.4500   -1.7500    0.0000 C   0  0  0  0  0  0  0  0  0  0  0  0
   -0.5500   -0.5167    0.0000 C   0  0  0  0  0  0  0  0  0  0  0  0
   -1.2708    0.7125    0.0000 C   0  0  0  0  0  0  0  0  0  0  0  0
    5.1542   -2.1542    0.0000 C   0  0  0  0  0  0  0  0  0  0  0  0
    5.1542   -2.9875    0.0000 C   0  0  0  0  0  0  0  0  0  0  0  0
  2  5  1  0  0  0  0
  3  1  1  0  0  0  0
  4  3  1  0  0  0  0
  5  1  1  0  0  0  0
  6  2  2  0  0  0  0
  7 12  1  0  0  0  0
  8  1  2  0  0  0  0
  9  5  2  0  0  0  0
 10  7  1  0  0  0  0
 11  4  2  0  0  0  0
 12 15  1  0  0  0  0
 13  7  2  0  0  0  0
 14  8  1  0  0  0  0
 15 14  1  0  0  0  0
 16 14  2  0  0  0  0
 17  2  1  0  0  0  0
 18 10  1  0  0  0  0
 19 10  1  0  0  0  0
 20 17  1  0  0  0  0
 21 20  1  0  0  0  0
 16  9  1  0  0  0  0
  4  6  1  0  0  0  0
M  END
>  <ID> (6157584)
6157584

>  <Supplier> (6157584)
ChemBridge

>  <clogP> (6157584)
2.480000000000000e+000

>  <RB> (6157584)
3

>  <tPSA> (6157584)
5.975000000000001e+001

>  <Hacc> (6157584)
4

>  <Hdon> (6157584)
0

>  <LogSw> (6157584)
-3.428000000000000e+000

>  <Group> (6157584)
2

>  <Core> (6157584)
075

$$$$
9110691
  -ISIS-  03310818292D

 26 28  0  0  0  0  0  0  0  0999 V2000
    1.6667    1.5208    0.0000 N   0  0  3  0  0  0  0  0  0  0  0  0
    0.4792    1.2625    0.0000 C   0  0  0  0  0  0  0  0  0  0  0  0
    1.5917    0.7708    0.0000 N   0  0  0  0  0  0  0  0  0  0  0  0
    0.9875    1.8208    0.0000 C   0  0  0  0  0  0  0  0  0  0  0  0
    0.8542    0.6125    0.0000 N   0  0  0  0  0  0  0  0  0  0  0  0
   -0.2625    1.3458    0.0000 C   0  0  0  0  0  0  0  0  0  0  0  0
    2.3167    1.8958    0.0000 C   0  0  0  0  0  0  0  0  0  0  0  0
   -0.5708    2.0333    0.0000 N   0  0  0  0  0  0  0  0  0  0  0  0
    2.9667    1.5208    0.0000 C   0  0  0  0  0  0  0  0  0  0  0  0
   -1.3125    2.1083    0.0000 C   0  0  0  0  0  0  0  0  0  0  0  0
   -0.7083    0.7333    0.0000 O   0  0  0  0  0  0  0  0  0  0  0  0
    3.6167    1.8958    0.0000 C   0  0  0  0  0  0  0  0  0  0  0  0
   -1.6208    2.7958    0.0000 C   0  0  0  0  0  0  0  0  0  0  0  0
   -1.7583    1.5000    0.0000 C   0  0  0  0  0  0  0  0  0  0  0  0
    0.8292    2.5583    0.0000 C   0  0  0  0  0  0  0  0  0  0  0  0
    4.2667    1.5208    0.0000 Cl  0  0  0  0  0  0  0  0  0  0  0  0
    2.3167    2.6458    0.0000 C   0  0  0  0  0  0  0  0  0  0  0  0
    2.9667    0.7708    0.0000 C   0  0  0  0  0  0  0  0  0  0  0  0
    2.9667    3.0208    0.0000 C   0  0  0  0  0  0  0  0  0  0  0  0
   -2.8083    2.2708    0.0000 C   0  0  0  0  0  0  0  0  0  0  0  0
    3.6167    2.6458    0.0000 C   0  0  0  0  0  0  0  0  0  0  0  0
   -2.3625    2.8708    0.0000 C   0  0  0  0  0  0  0  0  0  0  0  0
   -2.5000    1.5833    0.0000 C   0  0  0  0  0  0  0  0  0  0  0  0
   -1.4500    0.8125    0.0000 C   0  0  0  0  0  0  0  0  0  0  0  0
   -1.1750    3.3958    0.0000 C   0  0  0  0  0  0  0  0  0  0  0  0
   -1.8875    0.2083    0.0000 C   0  0  0  0  0  0  0  0  0  0  0  0
  2  4  2  0  0  0  0
  3  1  1  0  0  0  0
  4  1  1  0  0  0  0
  5  3  2  0  0  0  0
  6  2  1  0  0  0  0
  7  1  1  0  0  0  0
  8  6  1  0  0  0  0
  9  7  2  0  0  0  0
 10  8  1  0  0  0  0
 11  6  2  0  0  0  0
 12  9  1  0  0  0  0
 13 10  1  0  0  0  0
 14 10  2  0  0  0  0
 15  4  1  0  0  0  0
 16 12  1  0  0  0  0
 17  7  1  0  0  0  0
 18  9  1  0  0  0  0
 19 17  2  0  0  0  0
 20 23  2  0  0  0  0
 21 19  1  0  0  0  0
 22 13  2  0  0  0  0
 23 14  1  0  0  0  0
 24 14  1  0  0  0  0
 25 13  1  0  0  0  0
 26 24  1  0  0  0  0
  2  5  1  0  0  0  0
 21 12  2  0  0  0  0
 22 20  1  0  0  0  0
M  END
>  <ID> (9110691)
9110691

>  <Supplier> (9110691)
ChemBridge

>  <clogP> (9110691)
3.897000000000000e+000

>  <RB> (9110691)
3

>  <tPSA> (9110691)
5.981000000000002e+001

>  <Hacc> (9110691)
3

>  <Hdon> (9110691)
1

>  <LogSw> (9110691)
-5.217000000000000e+000

>  <Group> (9110691)
2

>  <Core> (9110691)
121

$$$$
9110692
  -ISIS-  03310818292D

 22 23  0  0  0  0  0  0  0  0999 V2000
    4.3792    2.9333    0.0000 C   0  0  0  0  0  0  0  0  0  0  0  0
    4.7542    3.5833    0.0000 C   0  0  0  0  0  0  0  0  0  0  0  0
    3.6292    2.9333    0.0000 N   0  0  0  0  0  0  0  0  0  0  0  0
    4.7542    2.2833    0.0000 O   0  0  0  0  0  0  0  0  0  0  0  0
    5.5042    3.5833    0.0000 C   0  0  0  0  0  0  0  0  0  0  0  0
    3.2542    2.2833    0.0000 C   0  0  0  0  0  0  0  0  0  0  0  0
    2.5042    2.2833    0.0000 C   0  0  0  0  0  0  0  0  0  0  0  0
    4.3792    4.2167    0.0000 C   0  0  0  0  0  0  0  0  0  0  0  0
    2.1292    1.6333    0.0000 C   0  0  0  0  0  0  0  0  0  0  0  0
    5.8792    2.9333    0.0000 O   0  0  0  0  0  0  0  0  0  0  0  0
    3.2542    0.9833    0.0000 C   0  0  0  0  0  0  0  0  0  0  0  0
    7.7542    2.2833    0.0000 O   0  0  0  0  0  0  0  0  0  0  0  0
    3.6292    1.6333    0.0000 C   0  0  0  0  0  0  0  0  0  0  0  0
    5.8792    4.2167    0.0000 C   0  0  0  0  0  0  0  0  0  0  0  0
    2.5042    0.9833    0.0000 C   0  0  0  0  0  0  0  0  0  0  0  0
    6.6292    2.9333    0.0000 C   0  0  0  0  0  0  0  0  0  0  0  0
    7.0042    2.2833    0.0000 C   0  0  0  0  0  0  0  0  0  0  0  0
    8.1292    1.6333    0.0000 C   0  0  0  0  0  0  0  0  0  0  0  0
    1.3792    1.6333    0.0000 C   0  0  0  0  0  0  0  0  0  0  0  0
    4.7542    4.8750    0.0000 C   0  0  0  0  0  0  0  0  0  0  0  0
    8.8792    1.6333    0.0000 C   0  0  0  0  0  0  0  0  0  0  0  0
    5.5042    4.8750    0.0000 C   0  0  0  0  0  0  0  0  0  0  0  0
  2  1  1  0  0  0  0
  3  1  1  0  0  0  0
  4  1  2  0  0  0  0
  5  2  1  0  0  0  0
  6  3  1  0  0  0  0
  7  6  1  0  0  0  0
  8  2  2  0  0  0  0
  9  7  2  0  0  0  0
 10  5  1  0  0  0  0
 11 13  1  0  0  0  0
 12 17  1  0  0  0  0
 13  6  2  0  0  0  0
 14  5  2  0  0  0  0
 15 11  2  0  0  0  0
 16 10  1  0  0  0  0
 17 16  1  0  0  0  0
 18 12  1  0  0  0  0
 19  9  1  0  0  0  0
 20  8  1  0  0  0  0
 21 18  1  0  0  0  0
 22 20  2  0  0  0  0
 14 22  1  0  0  0  0
 15  9  1  0  0  0  0
M  END
>  <ID> (9110692)
9110692

>  <Supplier> (9110692)
ChemBridge

>  <clogP> (9110692)
3.559000000000000e+000

>  <RB> (9110692)
5

>  <tPSA> (9110692)
4.756000000000000e+001

>  <Hacc> (9110692)
3

>  <Hdon> (9110692)
1

>  <LogSw> (9110692)
-4.423000000000000e+000

>  <Group> (9110692)
2

>  <Core> (9110692)
511

$$$$
7478836
  -ISIS-  03310818262D

 22 23  0  0  0  0  0  0  0  0999 V2000
    4.9125   -5.7417    0.0000 C   0  0  0  0  0  0  0  0  0  0  0  0
    4.9125   -6.5667    0.0000 C   0  0  0  0  0  0  0  0  0  0  0  0
    4.1917   -5.3292    0.0000 C   0  0  0  0  0  0  0  0  0  0  0  0
    7.7500   -9.0792    0.0000 N   0  3  0  0  0  0  0  0  0  0  0  0
    4.1917   -6.9792    0.0000 O   0  0  0  0  0  0  0  0  0  0  0  0
    3.4875   -6.5667    0.0000 C   0  0  0  0  0  0  0  0  0  0  0  0
    5.6250   -5.3292    0.0000 C   0  0  0  0  0  0  0  0  0  0  0  0
    3.4875   -5.7417    0.0000 C   0  0  0  0  0  0  0  0  0  0  0  0
    7.7625   -8.2500    0.0000 C   0  0  0  0  0  0  0  0  0  0  0  0
    7.0292   -9.4792    0.0000 O   0  5  0  0  0  0  0  0  0  0  0  0
    8.4625   -9.5042    0.0000 O   0  0  0  0  0  0  0  0  0  0  0  0
    6.3417   -5.7417    0.0000 O   0  0  0  0  0  0  0  0  0  0  0  0
    2.7750   -6.9792    0.0000 O   0  0  0  0  0  0  0  0  0  0  0  0
    5.6250   -4.5042    0.0000 O   0  0  0  0  0  0  0  0  0  0  0  0
    7.0417   -7.8250    0.0000 C   0  0  0  0  0  0  0  0  0  0  0  0
    6.3375   -6.5667    0.0000 C   0  0  0  0  0  0  0  0  0  0  0  0
    7.0625   -6.9917    0.0000 C   0  0  0  0  0  0  0  0  0  0  0  0
    5.6250   -6.9792    0.0000 C   0  0  0  0  0  0  0  0  0  0  0  0
    4.1917   -4.5042    0.0000 C   0  0  0  0  0  0  0  0  0  0  0  0
    8.4875   -7.8500    0.0000 C   0  0  0  0  0  0  0  0  0  0  0  0
    8.4917   -7.0167    0.0000 C   0  0  0  0  0  0  0  0  0  0  0  0
    7.7875   -6.5875    0.0000 C   0  0  0  0  0  0  0  0  0  0  0  0
  2  1  2  0  0  0  0
  3  1  1  0  0  0  0
  4  9  1  0  0  0  0
  5  2  1  0  0  0  0
  6  8  1  0  0  0  0
  7  1  1  0  0  0  0
  8  3  2  0  0  0  0
  9 15  1  0  0  0  0
 10  4  1  0  0  0  0
 11  4  2  0  0  0  0
 12  7  1  0  0  0  0
 13  6  2  0  0  0  0
 14  7  2  0  0  0  0
 15 17  2  0  0  0  0
 16 12  1  0  0  0  0
 17 16  1  0  0  0  0
 18  2  1  0  0  0  0
 19  3  1  0  0  0  0
 20 21  1  0  0  0  0
 21 22  2  0  0  0  0
 22 17  1  0  0  0  0
  5  6  1  0  0  0  0
 20  9  2  0  0  0  0
M  CHG  2   4   1  10  -1
M  END
>  <ID> (7478836)
7478836

>  <Supplier> (7478836)
ChemBridge

>  <clogP> (7478836)
2.566000000000000e+000

>  <RB> (7478836)
4

>  <tPSA> (7478836)
9.965000000000005e+001

>  <Hacc> (7478836)
6

>  <Hdon> (7478836)
0

>  <LogSw> (7478836)
-3.486000000000000e+000

>  <Group> (7478836)
3

$$$$
9110694
  -ISIS-  03310818292D

 24 25  0  0  0  0  0  0  0  0999 V2000
   -2.1375    2.6208    0.0000 C   0  0  0  0  0  0  0  0  0  0  0  0
   -2.8208    2.9250    0.0000 N   0  0  3  0  0  0  0  0  0  0  0  0
   -2.2208    1.8750    0.0000 N   0  0  0  0  0  0  0  0  0  0  0  0
    2.4042    2.9958    0.0000 C   0  0  0  0  0  0  0  0  0  0  0  0
    3.0542    2.6208    0.0000 N   0  0  0  0  0  0  0  0  0  0  0  0
   -1.4875    2.9958    0.0000 S   0  0  0  0  0  0  0  0  0  0  0  0
    1.7542    2.6208    0.0000 C   0  0  0  0  0  0  0  0  0  0  0  0
   -2.9500    1.7208    0.0000 C   0  0  0  0  0  0  0  0  0  0  0  0
   -0.1875    2.9958    0.0000 C   0  0  0  0  0  0  0  0  0  0  0  0
    3.0542    1.8708    0.0000 C   0  0  0  0  0  0  0  0  0  0  0  0
    0.4625    2.6208    0.0000 N   0  0  0  0  0  0  0  0  0  0  0  0
   -3.3250    2.3708    0.0000 C   0  0  0  0  0  0  0  0  0  0  0  0
    1.1125    2.9958    0.0000 C   0  0  0  0  0  0  0  0  0  0  0  0
    2.4042    3.7458    0.0000 C   0  0  0  0  0  0  0  0  0  0  0  0
   -0.1875    3.7458    0.0000 O   0  0  0  0  0  0  0  0  0  0  0  0
    2.4042    1.4958    0.0000 O   0  0  0  0  0  0  0  0  0  0  0  0
   -0.8375    2.6208    0.0000 C   0  0  0  0  0  0  0  0  0  0  0  0
    1.7542    4.1167    0.0000 C   0  0  0  0  0  0  0  0  0  0  0  0
    1.1125    3.7458    0.0000 C   0  0  0  0  0  0  0  0  0  0  0  0
    3.0542    4.1167    0.0000 O   0  0  0  0  0  0  0  0  0  0  0  0
   -2.9833    3.6708    0.0000 C   0  0  0  0  0  0  0  0  0  0  0  0
    3.7042    1.4958    0.0000 C   0  0  0  0  0  0  0  0  0  0  0  0
    3.0542    4.8667    0.0000 C   0  0  0  0  0  0  0  0  0  0  0  0
    3.7042    0.7458    0.0000 C   0  0  0  0  0  0  0  0  0  0  0  0
  2  1  1  0  0  0  0
  3  1  2  0  0  0  0
  4  7  1  0  0  0  0
  5  4  1  0  0  0  0
  6  1  1  0  0  0  0
  7 13  2  0  0  0  0
  8  3  1  0  0  0  0
  9 17  1  0  0  0  0
 10  5  1  0  0  0  0
 11  9  1  0  0  0  0
 12  2  1  0  0  0  0
 13 11  1  0  0  0  0
 14 18  1  0  0  0  0
 15  9  2  0  0  0  0
 16 10  2  0  0  0  0
 17  6  1  0  0  0  0
 18 19  2  0  0  0  0
 19 13  1  0  0  0  0
 20 14  1  0  0  0  0
 21  2  1  0  0  0  0
 22 10  1  0  0  0  0
 23 20  1  0  0  0  0
 24 22  1  0  0  0  0
  8 12  2  0  0  0  0
 14  4  2  0  0  0  0
M  END
>  <ID> (9110694)
9110694

>  <Supplier> (9110694)
ChemBridge

>  <clogP> (9110694)
7.510000000000000e-001

>  <RB> (9110694)
5

>  <tPSA> (9110694)
8.525000000000000e+001

>  <Hacc> (9110694)
4

>  <Hdon> (9110694)
2

>  <LogSw> (9110694)
-2.382000000000000e+000

>  <Group> (9110694)
2

$$$$
5834050
  -ISIS-  03310818222D

 41 46  0  0  0  0  0  0  0  0999 V2000
    2.4292    0.2208    0.0000 N   0  0  3  0  0  0  0  0  0  0  0  0
    2.4750   -0.6000    0.0000 C   0  0  0  0  0  0  0  0  0  0  0  0
    3.7917    0.2208    0.0000 C   0  0  0  0  0  0  0  0  0  0  0  0
    3.1125    0.6250    0.0000 C   0  0  3  0  0  0  0  0  0  0  0  0
    1.6750    0.4375    0.0000 C   0  0  0  0  0  0  0  0  0  0  0  0
    3.1125   -1.0042    0.0000 N   0  0  0  0  0  0  0  0  0  0  0  0
    1.2417   -0.2417    0.0000 C   0  0  0  0  0  0  0  0  0  0  0  0
    3.7792   -0.6000    0.0000 C   0  0  0  0  0  0  0  0  0  0  0  0
    1.7292   -0.8917    0.0000 S   0  0  0  0  0  0  0  0  0  0  0  0
    0.0917   -5.5792    0.0000 N   0  3  0  0  0  0  0  0  0  0  0  0
   -0.2208   -2.3000    0.0000 C   0  0  0  0  0  0  0  0  0  0  0  0
    0.4667   -0.2875    0.0000 C   0  0  0  0  0  0  0  0  0  0  0  0
    3.1000    1.9875    0.0000 C   0  0  0  0  0  0  0  0  0  0  0  0
    0.3750   -1.7542    0.0000 O   0  0  0  0  0  0  0  0  0  0  0  0
    0.0625   -1.0000    0.0000 C   0  0  0  0  0  0  0  0  0  0  0  0
    4.4667    0.6250    0.0000 C   0  0  0  0  0  0  0  0  0  0  0  0
   -0.1458   -3.1292    0.0000 C   0  0  0  0  0  0  0  0  0  0  0  0
    0.0042   -4.7667    0.0000 C   0  0  0  0  0  0  0  0  0  0  0  0
   -0.8958   -1.8792    0.0000 C   0  0  0  0  0  0  0  0  0  0  0  0
   -0.7833   -3.6000    0.0000 C   0  0  0  0  0  0  0  0  0  0  0  0
    3.7792    2.3958    0.0000 C   0  0  0  0  0  0  0  0  0  0  0  0
    3.7792    3.2083    0.0000 C   0  0  0  0  0  0  0  0  0  0  0  0
   -0.7208   -1.0792    0.0000 C   0  0  0  0  0  0  0  0  0  0  0  0
   -0.7083   -4.4292    0.0000 C   0  0  0  0  0  0  0  0  0  0  0  0
    0.5667   -3.4542    0.0000 C   0  0  0  0  0  0  0  0  0  0  0  0
   -0.5458   -6.0625    0.0000 O   0  5  0  0  0  0  0  0  0  0  0  0
    3.1000    3.6125    0.0000 C   0  0  0  0  0  0  0  0  0  0  0  0
    1.2542    1.2000    0.0000 O   0  0  0  0  0  0  0  0  0  0  0  0
    4.3750    3.7333    0.0000 O   0  0  0  0  0  0  0  0  0  0  0  0
    0.8125   -5.9167    0.0000 O   0  0  0  0  0  0  0  0  0  0  0  0
    3.2792    4.3792    0.0000 O   0  0  0  0  0  0  0  0  0  0  0  0
    2.4167    2.3958    0.0000 C   0  0  0  0  0  0  0  0  0  0  0  0
    4.0667    4.4500    0.0000 C   0  0  0  0  0  0  0  0  0  0  0  0
    0.6500   -4.2792    0.0000 C   0  0  0  0  0  0  0  0  0  0  0  0
    4.4667    1.4458    0.0000 O   0  0  0  0  0  0  0  0  0  0  0  0
    2.4167    3.2083    0.0000 C   0  0  0  0  0  0  0  0  0  0  0  0
    5.1375    0.2208    0.0000 O   0  0  0  0  0  0  0  0  0  0  0  0
    4.4667   -1.0042    0.0000 C   0  0  0  0  0  0  0  0  0  0  0  0
   -1.4958   -3.2750    0.0000 C   0  0  0  0  0  0  0  0  0  0  0  0
    5.8250    0.6250    0.0000 C   0  0  0  0  0  0  0  0  0  0  0  0
    6.5042    0.2208    0.0000 C   0  0  0  0  0  0  0  0  0  0  0  0
  2  1  1  0  0  0  0
  3  4  1  0  0  0  0
  4  1  1  0  0  0  0
  5  1  1  0  0  0  0
  6  2  2  0  0  0  0
  7  5  1  0  0  0  0
  8  3  2  0  0  0  0
  9  2  1  0  0  0  0
 10 18  1  0  0  0  0
 11 14  1  0  0  0  0
 12  7  2  0  0  0  0
 13  4  1  0  0  0  0
 14 15  1  0  0  0  0
 15 12  1  0  0  0  0
 16  3  1  0  0  0  0
 17 11  1  0  0  0  0
 18 34  1  0  0  0  0
 19 23  1  0  0  0  0
 20 17  2  0  0  0  0
 21 13  2  0  0  0  0
 22 21  1  0  0  0  0
 23 15  2  0  0  0  0
 24 20  1  0  0  0  0
 25 17  1  0  0  0  0
 26 10  1  0  0  0  0
 27 36  1  0  0  0  0
 28  5  2  0  0  0  0
 29 22  1  0  0  0  0
 30 10  2  0  0  0  0
 31 27  1  0  0  0  0
 32 13  1  0  0  0  0
 33 29  1  0  0  0  0
 34 25  2  0  0  0  0
 35 16  2  0  0  0  0
 36 32  2  0  0  0  0
 37 16  1  0  0  0  0
 38  8  1  0  0  0  0
 39 20  1  0  0  0  0
 40 37  1  0  0  0  0
 41 40  1  0  0  0  0
  7  9  1  0  0  0  0
  6  8  1  0  0  0  0
 22 27  2  0  0  0  0
 19 11  2  0  0  0  0
 33 31  1  0  0  0  0
 24 18  2  0  0  0  0
M  CHG  2  10   1  26  -1
M  END
>  <ID> (5834050)
5834050

>  <Supplier> (5834050)
ChemBridge

>  <clogP> (5834050)
6.500000000000000e+000

>  <RB> (5834050)
4

>  <tPSA> (5834050)
1.354000000000000e+002

>  <Hacc> (5834050)
9

>  <Hdon> (5834050)
0

>  <LogSw> (5834050)
-9.321000000000000e+000

>  <Group> (5834050)
1

>  <Core> (5834050)
096

$$$$
9110696
  -ISIS-  03310818292D

 23 24  0  0  0  0  0  0  0  0999 V2000
    6.3792    2.3333    0.0000 C   0  0  0  0  0  0  0  0  0  0  0  0
    2.6292    2.3333    0.0000 C   0  0  0  0  0  0  0  0  0  0  0  0
    3.0042    1.6750    0.0000 N   0  0  0  0  0  0  0  0  0  0  0  0
    6.0042    1.6750    0.0000 N   0  0  0  0  0  0  0  0  0  0  0  0
    3.7542    1.6750    0.0000 C   0  0  0  0  0  0  0  0  0  0  0  0
    7.1292    2.3333    0.0000 C   0  0  3  0  0  0  0  0  0  0  0  0
    4.1292    1.0250    0.0000 C   0  0  0  0  0  0  0  0  0  0  0  0
    5.2542    1.6750    0.0000 C   0  0  0  0  0  0  0  0  0  0  0  0
    4.8792    1.0250    0.0000 C   0  0  0  0  0  0  0  0  0  0  0  0
    6.0042    2.9833    0.0000 O   0  0  0  0  0  0  0  0  0  0  0  0
    3.0042    2.9833    0.0000 O   0  0  0  0  0  0  0  0  0  0  0  0
    1.8792    2.3333    0.0000 C   0  0  0  0  0  0  0  0  0  0  0  0
    4.1292    2.3333    0.0000 C   0  0  0  0  0  0  0  0  0  0  0  0
    4.8792    2.3333    0.0000 C   0  0  0  0  0  0  0  0  0  0  0  0
    7.3250    3.0500    0.0000 C   0  0  0  0  0  0  0  0  0  0  0  0
    7.0667    1.5833    0.0000 C   0  0  0  0  0  0  0  0  0  0  0  0
    7.8667    2.1958    0.0000 C   0  0  0  0  0  0  0  0  0  0  0  0
    3.7542    0.3750    0.0000 C   0  0  0  0  0  0  0  0  0  0  0  0
    1.5042    2.9833    0.0000 C   0  0  0  0  0  0  0  0  0  0  0  0
    1.5042    1.6750    0.0000 C   0  0  0  0  0  0  0  0  0  0  0  0
    0.7542    1.6750    0.0000 C   0  0  0  0  0  0  0  0  0  0  0  0
    0.7542    2.9833    0.0000 C   0  0  0  0  0  0  0  0  0  0  0  0
    0.3792    2.3333    0.0000 C   0  0  0  0  0  0  0  0  0  0  0  0
  2  3  1  0  0  0  0
  3  5  1  0  0  0  0
  4  1  1  0  0  0  0
  5 13  1  0  0  0  0
  6  1  1  0  0  0  0
  7  9  1  0  0  0  0
  8  4  1  0  0  0  0
  9  8  2  0  0  0  0
 10  1  2  0  0  0  0
 11  2  2  0  0  0  0
 12  2  1  0  0  0  0
 13 14  2  0  0  0  0
 14  8  1  0  0  0  0
 15  6  1  0  0  0  0
 16  6  1  0  0  0  0
 17  6  1  0  0  0  0
 18  7  1  0  0  0  0
 19 12  2  0  0  0  0
 20 12  1  0  0  0  0
 21 20  2  0  0  0  0
 22 19  1  0  0  0  0
 23 21  1  0  0  0  0
  5  7  2  0  0  0  0
 23 22  2  0  0  0  0
M  END
>  <ID> (9110696)
9110696

>  <Supplier> (9110696)
ChemBridge

>  <clogP> (9110696)
2.755000000000000e+000

>  <RB> (9110696)
4

>  <tPSA> (9110696)
5.820000000000000e+001

>  <Hacc> (9110696)
2

>  <Hdon> (9110696)
2

>  <LogSw> (9110696)
-3.815999999999999e+000

>  <Group> (9110696)
2

>  <Core> (9110696)
157

$$$$
9026733
  -ISIS-  03310818282D

 22 23  0  0  0  0  0  0  0  0999 V2000
    4.9792    2.5833    0.0000 C   0  0  0  0  0  0  0  0  0  0  0  0
    1.2292    1.2833    0.0000 C   0  0  0  0  0  0  0  0  0  0  0  0
    1.6042    1.9333    0.0000 N   0  0  0  0  0  0  0  0  0  0  0  0
    4.6042    1.9333    0.0000 O   0  0  0  0  0  0  0  0  0  0  0  0
    4.6042    3.2333    0.0000 O   0  0  0  0  0  0  0  0  0  0  0  0
    0.4792    1.2833    0.0000 O   0  0  0  0  0  0  0  0  0  0  0  0
    6.1042    3.2333    0.0000 O   0  0  0  0  0  0  0  0  0  0  0  0
    2.3542    1.9333    0.0000 C   0  0  0  0  0  0  0  0  0  0  0  0
    5.7292    2.5833    0.0000 C   0  0  0  0  0  0  0  0  0  0  0  0
    3.8542    1.9333    0.0000 C   0  0  0  0  0  0  0  0  0  0  0  0
    6.8542    3.2333    0.0000 C   0  0  0  0  0  0  0  0  0  0  0  0
    7.2292    2.5833    0.0000 C   0  0  0  0  0  0  0  0  0  0  0  0
    2.7292    2.5833    0.0000 C   0  0  0  0  0  0  0  0  0  0  0  0
    2.7292    1.2833    0.0000 C   0  0  0  0  0  0  0  0  0  0  0  0
    3.4792    1.2833    0.0000 C   0  0  0  0  0  0  0  0  0  0  0  0
    3.4792    2.5833    0.0000 C   0  0  0  0  0  0  0  0  0  0  0  0
    7.9792    2.5833    0.0000 C   0  0  0  0  0  0  0  0  0  0  0  0
    7.9792    3.8833    0.0000 C   0  0  0  0  0  0  0  0  0  0  0  0
    1.6042    0.6333    0.0000 C   0  0  0  0  0  0  0  0  0  0  0  0
    7.2292    3.8833    0.0000 C   0  0  0  0  0  0  0  0  0  0  0  0
    8.3542    3.2333    0.0000 C   0  0  0  0  0  0  0  0  0  0  0  0
    8.3542    1.9333    0.0000 C   0  0  0  0  0  0  0  0  0  0  0  0
  2  3  1  0  0  0  0
  3  8  1  0  0  0  0
  4  1  1  0  0  0  0
  5  1  2  0  0  0  0
  6  2  2  0  0  0  0
  7  9  1  0  0  0  0
  8 13  2  0  0  0  0
  9  1  1  0  0  0  0
 10  4  1  0  0  0  0
 11  7  1  0  0  0  0
 12 11  2  0  0  0  0
 13 16  1  0  0  0  0
 14 15  2  0  0  0  0
 15 10  1  0  0  0  0
 16 10  2  0  0  0  0
 17 12  1  0  0  0  0
 18 20  2  0  0  0  0
 19  2  1  0  0  0  0
 20 11  1  0  0  0  0
 21 18  1  0  0  0  0
 22 17  1  0  0  0  0
 14  8  1  0  0  0  0
 21 17  2  0  0  0  0
M  END
>  <ID> (9026733)
9026733

>  <Supplier> (9026733)
ChemBridge

>  <clogP> (9026733)
2.603000000000000e+000

>  <RB> (9026733)
6

>  <tPSA> (9026733)
6.463000000000000e+001

>  <Hacc> (9026733)
4

>  <Hdon> (9026733)
1

>  <LogSw> (9026733)
-3.606000000000000e+000

>  <Group> (9026733)
1

>  <Core> (9026733)
314

$$$$
5358506
  -ISIS-  03310818222D

 14 14  0  0  0  0  0  0  0  0999 V2000
   -3.9208    0.6333    0.0000 N   0  3  0  0  0  0  0  0  0  0  0  0
   -2.6833   -0.0875    0.0000 C   0  0  0  0  0  0  0  0  0  0  0  0
    3.4292    0.6000    0.0000 C   0  0  0  0  0  0  0  0  0  0  0  0
    2.2042   -0.1042    0.0000 C   0  0  0  0  0  0  0  0  0  0  0  0
   -3.9208    2.0333    0.0000 O   0  5  0  0  0  0  0  0  0  0  0  0
   -5.1458   -0.1042    0.0000 O   0  0  0  0  0  0  0  0  0  0  0  0
    0.9875    0.6333    0.0000 C   0  0  0  0  0  0  0  0  0  0  0  0
   -1.4708    0.6333    0.0000 C   0  0  0  0  0  0  0  0  0  0  0  0
    3.4292    2.0208    0.0000 O   0  0  0  0  0  0  0  0  0  0  0  0
   -0.2500   -0.0875    0.0000 C   0  0  0  0  0  0  0  0  0  0  0  0
    4.6375   -0.1042    0.0000 N   0  0  0  0  0  0  0  0  0  0  0  0
   -2.6833   -1.5000    0.0000 C   0  0  0  0  0  0  0  0  0  0  0  0
   -1.4708   -2.2042    0.0000 C   0  0  0  0  0  0  0  0  0  0  0  0
   -0.2500   -1.5000    0.0000 C   0  0  0  0  0  0  0  0  0  0  0  0
  2  1  1  0  0  0  0
  3  4  1  0  0  0  0
  4  7  2  0  0  0  0
  5  1  1  0  0  0  0
  6  1  2  0  0  0  0
  7 10  1  0  0  0  0
  8  2  1  0  0  0  0
  9  3  2  0  0  0  0
 10  8  2  0  0  0  0
 11  3  1  0  0  0  0
 12  2  2  0  0  0  0
 13 12  1  0  0  0  0
 14 13  2  0  0  0  0
 14 10  1  0  0  0  0
M  CHG  2   1   1   5  -1
M  END
>  <ID> (5358506)
5358506

>  <Supplier> (5358506)
ChemBridge

>  <clogP> (5358506)
1.320000000000000e+000

>  <RB> (5358506)
2

>  <tPSA> (5358506)
8.623000000000002e+001

>  <Hacc> (5358506)
3

>  <Hdon> (5358506)
1

>  <LogSw> (5358506)
-2.120000000000000e+000

>  <Group> (5358506)
1

>  <Core> (5358506)
435

$$$$
5358504
  -ISIS-  03310818222D

 27 28  0  0  0  0  0  0  0  0999 V2000
   -2.8708    0.7000    0.0000 C   0  0  0  0  0  0  0  0  0  0  0  0
   -1.6708    0.6208    0.0000 C   0  0  0  0  0  0  0  0  0  0  0  0
   -4.2208    0.7458    0.0000 C   0  0  0  0  0  0  0  0  0  0  0  0
   -0.5000    0.4625    0.0000 C   0  0  0  0  0  0  0  0  0  0  0  0
   -2.2500    0.7000    0.0000 C   0  0  3  0  0  0  0  0  0  0  0  0
   -3.9000    0.1208    0.0000 C   0  0  0  0  0  0  0  0  0  0  0  0
   -0.8625    0.0000    0.0000 C   0  0  0  0  0  0  0  0  0  0  0  0
   -3.8833    1.3125    0.0000 C   0  0  0  0  0  0  0  0  0  0  0  0
   -0.7333    1.0125    0.0000 C   0  0  0  0  0  0  0  0  0  0  0  0
   -4.7083    0.7458    0.0000 N   0  0  0  0  0  0  0  0  0  0  0  0
    0.1167    0.3500    0.0000 N   0  0  0  0  0  0  0  0  0  0  0  0
   -3.2125    1.2958    0.0000 C   0  0  0  0  0  0  0  0  0  0  0  0
   -1.4500    0.0708    0.0000 C   0  0  0  0  0  0  0  0  0  0  0  0
   -1.3125    1.0833    0.0000 C   0  0  0  0  0  0  0  0  0  0  0  0
   -3.2333    0.1000    0.0000 C   0  0  0  0  0  0  0  0  0  0  0  0
   -5.0625    0.3708    0.0000 C   0  0  0  0  0  0  0  0  0  0  0  0
    0.5875    0.7625    0.0000 C   0  0  0  0  0  0  0  0  0  0  0  0
   -5.0458   -0.0292    0.0000 O   0  0  0  0  0  0  0  0  0  0  0  0
    0.4542    1.2125    0.0000 O   0  0  0  0  0  0  0  0  0  0  0  0
   -2.2500    0.1458    0.0000 C   0  0  0  0  0  0  0  0  0  0  0  0
   -2.2708    1.3500    0.0000 C   0  0  0  0  0  0  0  0  0  0  0  0
   -0.5958   -0.3875    0.0000 C   0  0  0  0  0  0  0  0  0  0  0  0
   -4.1208    1.7208    0.0000 C   0  0  0  0  0  0  0  0  0  0  0  0
   -4.2208   -0.2042    0.0000 C   0  0  0  0  0  0  0  0  0  0  0  0
   -0.2125    1.4458    0.0000 C   0  0  0  0  0  0  0  0  0  0  0  0
    1.4000    0.4333    0.0000 C   0  0  0  0  0  0  0  0  0  0  0  0
   -5.5333    0.7458    0.0000 C   0  0  0  0  0  0  0  0  0  0  0  0
  2  5  1  0  0  0  0
  3  6  1  0  0  0  0
  4  9  1  0  0  0  0
  5  1  1  0  0  0  0
  6 15  2  0  0  0  0
  7 13  1  0  0  0  0
  8 12  1  0  0  0  0
  9 14  2  0  0  0  0
 10  3  1  0  0  0  0
 11  4  1  0  0  0  0
 12  1  2  0  0  0  0
 13  2  2  0  0  0  0
 14  2  1  0  0  0  0
 15  1  1  0  0  0  0
 16 10  1  0  0  0  0
 17 11  1  0  0  0  0
 18 16  2  0  0  0  0
 19 17  2  0  0  0  0
 20  5  1  0  0  0  0
 21  5  1  0  0  0  0
 22  7  1  0  0  0  0
 23  8  1  0  0  0  0
 24  6  1  0  0  0  0
 25  9  1  0  0  0  0
 26 17  1  0  0  0  0
 27 16  1  0  0  0  0
  3  8  2  0  0  0  0
  4  7  2  0  0  0  0
M  END
>  <ID> (5358504)
5358504

>  <Supplier> (5358504)
ChemBridge

>  <clogP> (5358504)
2.440000000000000e+000

>  <RB> (5358504)
4

>  <tPSA> (5358504)
5.820000000000000e+001

>  <Hacc> (5358504)
2

>  <Hdon> (5358504)
2

>  <LogSw> (5358504)
-3.956000000000000e+000

>  <Group> (5358504)
3

$$$$
7408401
  -ISIS-  03310818262D

 32 35  0  0  0  0  0  0  0  0999 V2000
    8.4542   -2.2292    0.0000 N   0  0  3  0  0  0  0  0  0  0  0  0
    7.0250   -2.2292    0.0000 C   0  0  0  0  0  0  0  0  0  0  0  0
    7.7375   -1.8167    0.0000 C   0  0  0  0  0  0  0  0  0  0  0  0
    8.4542   -3.0542    0.0000 C   0  0  0  0  0  0  0  0  0  0  0  0
    7.7417   -3.4667    0.0000 N   0  0  0  0  0  0  0  0  0  0  0  0
    7.0250   -3.0625    0.0000 C   0  0  0  0  0  0  0  0  0  0  0  0
    6.3042   -1.8250    0.0000 C   0  0  0  0  0  0  0  0  0  0  0  0
    9.1667   -1.8042    0.0000 C   0  0  0  0  0  0  0  0  0  0  0  0
    9.1792   -3.4667    0.0000 O   0  0  0  0  0  0  0  0  0  0  0  0
    7.7292   -0.9875    0.0000 O   0  0  0  0  0  0  0  0  0  0  0  0
    6.3042   -3.4750    0.0000 O   0  0  0  0  0  0  0  0  0  0  0  0
    3.4500   -3.4792    0.0000 S   0  0  0  0  0  0  0  0  0  0  0  0
    5.5917   -2.2417    0.0000 C   0  0  0  0  0  0  0  0  0  0  0  0
    9.1625   -0.9792    0.0000 C   0  0  0  0  0  0  0  0  0  0  0  0
    9.8875   -2.2167    0.0000 C   0  0  0  0  0  0  0  0  0  0  0  0
    4.1667   -3.0667    0.0000 C   0  0  0  0  0  0  0  0  0  0  0  0
    2.7375   -3.0667    0.0000 C   0  0  0  0  0  0  0  0  0  0  0  0
    1.3125   -2.2417    0.0000 C   0  0  0  0  0  0  0  0  0  0  0  0
   10.6000   -0.9667    0.0000 C   0  0  0  0  0  0  0  0  0  0  0  0
    9.8792   -0.5542    0.0000 C   0  0  0  0  0  0  0  0  0  0  0  0
   10.6042   -1.8000    0.0000 C   0  0  0  0  0  0  0  0  0  0  0  0
    0.6000   -1.8292    0.0000 Cl  0  0  0  0  0  0  0  0  0  0  0  0
    5.5917   -3.0667    0.0000 C   0  0  0  0  0  0  0  0  0  0  0  0
    4.8792   -1.8292    0.0000 C   0  0  0  0  0  0  0  0  0  0  0  0
    4.8792   -3.4792    0.0000 C   0  0  0  0  0  0  0  0  0  0  0  0
    2.7417   -2.2417    0.0000 C   0  0  0  0  0  0  0  0  0  0  0  0
    4.1667   -2.2417    0.0000 C   0  0  0  0  0  0  0  0  0  0  0  0
    2.0292   -3.4792    0.0000 C   0  0  0  0  0  0  0  0  0  0  0  0
    1.3167   -3.0750    0.0000 C   0  0  0  0  0  0  0  0  0  0  0  0
    2.0292   -1.8292    0.0000 C   0  0  0  0  0  0  0  0  0  0  0  0
   11.3167   -0.5542    0.0000 O   0  0  0  0  0  0  0  0  0  0  0  0
   11.3042    0.2708    0.0000 C   0  0  0  0  0  0  0  0  0  0  0  0
  2  3  1  0  0  0  0
  3  1  1  0  0  0  0
  4  1  1  0  0  0  0
  5  4  1  0  0  0  0
  6  5  1  0  0  0  0
  7  2  2  0  0  0  0
  8  1  1  0  0  0  0
  9  4  2  0  0  0  0
 10  3  2  0  0  0  0
 11  6  2  0  0  0  0
 12 16  1  0  0  0  0
 13  7  1  0  0  0  0
 14  8  1  0  0  0  0
 15  8  2  0  0  0  0
 16 27  2  0  0  0  0
 17 12  1  0  0  0  0
 18 29  1  0  0  0  0
 19 21  2  0  0  0  0
 20 14  2  0  0  0  0
 21 15  1  0  0  0  0
 22 18  1  0  0  0  0
 23 13  1  0  0  0  0
 24 13  2  0  0  0  0
 25 23  2  0  0  0  0
 26 17  2  0  0  0  0
 27 24  1  0  0  0  0
 28 17  1  0  0  0  0
 29 28  2  0  0  0  0
 30 26  1  0  0  0  0
 31 19  1  0  0  0  0
 32 31  1  0  0  0  0
 19 20  1  0  0  0  0
  2  6  1  0  0  0  0
 16 25  1  0  0  0  0
 30 18  2  0  0  0  0
M  END
>  <ID> (7408401)
7408401

>  <Supplier> (7408401)
ChemBridge

>  <clogP> (7408401)
5.073000000000000e+000

>  <RB> (7408401)
4

>  <tPSA> (7408401)
7.570999999999999e+001

>  <Hacc> (7408401)
4

>  <Hdon> (7408401)
1

>  <LogSw> (7408401)
-6.708000000000000e+000

>  <Group> (7408401)
1

>  <Core> (7408401)
006

$$$$
7408402
  -ISIS-  03310818262D

 30 33  0  0  0  0  0  0  0  0999 V2000
    0.8792   -0.8375    0.0000 C   0  0  0  0  0  0  0  0  0  0  0  0
   -0.0333   -0.5500    0.0000 C   0  0  0  0  0  0  0  0  0  0  0  0
    1.1792   -1.7542    0.0000 C   0  0  0  0  0  0  0  0  0  0  0  0
   -0.7708   -1.1167    0.0000 N   0  0  0  0  0  0  0  0  0  0  0  0
    2.1667   -1.7542    0.0000 N   0  0  0  0  0  0  0  0  0  0  0  0
   -1.5833   -0.5500    0.0000 C   0  0  0  0  0  0  0  0  0  0  0  0
   -1.2833    0.3625    0.0000 N   0  0  0  0  0  0  0  0  0  0  0  0
   -0.3125    0.3458    0.0000 O   0  0  0  0  0  0  0  0  0  0  0  0
    0.5875   -2.5167    0.0000 C   0  0  0  0  0  0  0  0  0  0  0  0
    2.4417   -0.8500    0.0000 O   0  0  0  0  0  0  0  0  0  0  0  0
    1.6875   -0.2542    0.0000 C   0  0  0  0  0  0  0  0  0  0  0  0
   -2.4958   -0.8375    0.0000 C   0  0  0  0  0  0  0  0  0  0  0  0
   -4.2958   -1.4500    0.0000 C   0  0  0  0  0  0  0  0  0  0  0  0
   -3.5708   -2.0667    0.0000 C   0  0  0  0  0  0  0  0  0  0  0  0
   -4.1000   -0.5167    0.0000 C   0  0  0  0  0  0  0  0  0  0  0  0
   -2.6625   -1.7500    0.0000 C   0  0  0  0  0  0  0  0  0  0  0  0
   -3.2208   -0.2042    0.0000 C   0  0  0  0  0  0  0  0  0  0  0  0
    0.9542   -3.4000    0.0000 C   0  0  0  0  0  0  0  0  0  0  0  0
   -5.1958   -1.7500    0.0000 O   0  0  0  0  0  0  0  0  0  0  0  0
   -4.8125    0.1208    0.0000 O   0  0  0  0  0  0  0  0  0  0  0  0
   -3.7625   -3.0042    0.0000 O   0  0  0  0  0  0  0  0  0  0  0  0
    1.9167   -3.5000    0.0000 Cl  0  0  0  0  0  0  0  0  0  0  0  0
   -0.3958   -2.4167    0.0000 C   0  0  0  0  0  0  0  0  0  0  0  0
    1.7375    0.6958    0.0000 C   0  0  0  0  0  0  0  0  0  0  0  0
    0.3875   -4.1875    0.0000 C   0  0  0  0  0  0  0  0  0  0  0  0
   -5.3833   -2.6792    0.0000 C   0  0  0  0  0  0  0  0  0  0  0  0
   -4.6208    1.0500    0.0000 C   0  0  0  0  0  0  0  0  0  0  0  0
   -4.6625   -3.3042    0.0000 C   0  0  0  0  0  0  0  0  0  0  0  0
   -0.9458   -3.1875    0.0000 C   0  0  0  0  0  0  0  0  0  0  0  0
   -0.5625   -4.0792    0.0000 C   0  0  0  0  0  0  0  0  0  0  0  0
  2  1  1  0  0  0  0
  3  1  1  0  0  0  0
  4  2  2  0  0  0  0
  5  3  2  0  0  0  0
  6  4  1  0  0  0  0
  7  8  1  0  0  0  0
  8  2  1  0  0  0  0
  9  3  1  0  0  0  0
 10 11  1  0  0  0  0
 11  1  2  0  0  0  0
 12  6  1  0  0  0  0
 13 15  2  0  0  0  0
 14 16  2  0  0  0  0
 15 17  1  0  0  0  0
 16 12  1  0  0  0  0
 17 12  2  0  0  0  0
 18  9  1  0  0  0  0
 19 13  1  0  0  0  0
 20 15  1  0  0  0  0
 21 14  1  0  0  0  0
 22 18  1  0  0  0  0
 23  9  2  0  0  0  0
 24 11  1  0  0  0  0
 25 18  2  0  0  0  0
 26 19  1  0  0  0  0
 27 20  1  0  0  0  0
 28 21  1  0  0  0  0
 29 23  1  0  0  0  0
 30 29  2  0  0  0  0
 10  5  1  0  0  0  0
  7  6  2  0  0  0  0
 25 30  1  0  0  0  0
 13 14  1  0  0  0  0
M  END
>  <ID> (7408402)
7408402

>  <Supplier> (7408402)
ChemBridge

>  <clogP> (7408402)
3.176000000000000e+000

>  <RB> (7408402)
3

>  <tPSA> (7408402)
9.264000000000002e+001

>  <Hacc> (7408402)
8

>  <Hdon> (7408402)
0

>  <LogSw> (7408402)
-5.682000000000000e+000

>  <Group> (7408402)
3

>  <Core> (7408402)
206

$$$$
7408406
  -ISIS-  03310818262D

 25 27  0  0  0  0  0  0  0  0999 V2000
    2.9917    0.3583    0.0000 C   0  0  0  0  0  0  0  0  0  0  0  0
    3.0792   -0.4542    0.0000 N   0  0  3  0  0  0  0  0  0  0  0  0
    3.7417    0.7000    0.0000 N   0  0  0  0  0  0  0  0  0  0  0  0
    3.8875   -0.6292    0.0000 C   0  0  0  0  0  0  0  0  0  0  0  0
    2.2792    0.7708    0.0000 C   0  0  0  0  0  0  0  0  0  0  0  0
    4.3000    0.0875    0.0000 N   0  0  0  0  0  0  0  0  0  0  0  0
    2.6042   -3.6417    0.0000 C   0  0  0  0  0  0  0  0  0  0  0  0
    2.2667   -2.8917    0.0000 N   0  0  0  0  0  0  0  0  0  0  0  0
    1.5625    0.3583    0.0000 C   0  0  0  0  0  0  0  0  0  0  0  0
    3.4167   -3.8000    0.0000 N   0  0  0  0  0  0  0  0  0  0  0  0
    4.2250   -1.3792    0.0000 S   0  0  0  0  0  0  0  0  0  0  0  0
    2.1917   -4.3542    0.0000 S   0  0  0  0  0  0  0  0  0  0  0  0
    2.7417   -2.2167    0.0000 C   0  0  0  0  0  0  0  0  0  0  0  0
    2.2792    1.6000    0.0000 C   0  0  0  0  0  0  0  0  0  0  0  0
    0.8500    0.7708    0.0000 C   0  0  0  0  0  0  0  0  0  0  0  0
    3.5000   -4.6167    0.0000 C   0  0  0  0  0  0  0  0  0  0  0  0
    2.7667   -4.9625    0.0000 C   0  0  0  0  0  0  0  0  0  0  0  0
    2.3917   -1.4625    0.0000 O   0  0  0  0  0  0  0  0  0  0  0  0
    3.5625   -2.2917    0.0000 C   0  0  0  0  0  0  0  0  0  0  0  0
    2.4625   -1.0042    0.0000 C   0  0  0  0  0  0  0  0  0  0  0  0
    0.8500    1.6000    0.0000 C   0  0  0  0  0  0  0  0  0  0  0  0
    1.5542   -0.4667    0.0000 Cl  0  0  0  0  0  0  0  0  0  0  0  0
    1.5625    2.0208    0.0000 C   0  0  0  0  0  0  0  0  0  0  0  0
    0.1292    2.0083    0.0000 Cl  0  0  0  0  0  0  0  0  0  0  0  0
    2.6292   -1.8125    0.0000 C   0  0  0  0  0  0  0  0  0  0  0  0
  2  1  1  0  0  0  0
  3  1  2  0  0  0  0
  4  2  1  0  0  0  0
  5  1  1  0  0  0  0
  6  3  1  0  0  0  0
  7  8  1  0  0  0  0
  8 13  1  0  0  0  0
  9  5  2  0  0  0  0
 10  7  2  0  0  0  0
 11  4  1  0  0  0  0
 12  7  1  0  0  0  0
 13 19  1  0  0  0  0
 14  5  1  0  0  0  0
 15  9  1  0  0  0  0
 16 10  1  0  0  0  0
 17 12  1  0  0  0  0
 18 13  2  0  0  0  0
 19 11  1  0  0  0  0
 20  2  1  0  0  0  0
 21 23  1  0  0  0  0
 22  9  1  0  0  0  0
 23 14  2  0  0  0  0
 24 21  1  0  0  0  0
 25 20  1  0  0  0  0
  6  4  2  0  0  0  0
 15 21  2  0  0  0  0
 17 16  2  0  0  0  0
M  END
>  <ID> (7408406)
7408406

>  <Supplier> (7408406)
ChemBridge

>  <clogP> (7408406)
3.180000000000000e+000

>  <RB> (7408406)
5

>  <tPSA> (7408406)
7.270000000000000e+001

>  <Hacc> (7408406)
5

>  <Hdon> (7408406)
1

>  <LogSw> (7408406)
-6.053999999999999e+000

>  <Group> (7408406)
2

>  <Core> (7408406)
009

$$$$
9026735
  -ISIS-  03310818282D

 22 25  0  0  0  0  0  0  0  0999 V2000
    2.5792    1.5708    0.0000 N   0  0  3  0  0  0  0  0  0  0  0  0
    4.4042    0.8000    0.0000 N   0  0  3  0  0  0  0  0  0  0  0  0
    1.9667    2.6208    0.0000 N   0  0  0  0  0  0  0  0  0  0  0  0
    2.6542    2.3208    0.0000 C   0  0  0  0  0  0  0  0  0  0  0  0
    3.8500    1.3000    0.0000 C   0  0  0  0  0  0  0  0  0  0  0  0
    3.1375    1.0708    0.0000 C   0  0  0  0  0  0  0  0  0  0  0  0
    1.8417    1.4125    0.0000 C   0  0  0  0  0  0  0  0  0  0  0  0
    1.4667    2.0625    0.0000 C   0  0  0  0  0  0  0  0  0  0  0  0
    5.1417    0.9583    0.0000 C   0  0  0  0  0  0  0  0  0  0  0  0
    4.3292    0.0583    0.0000 C   0  0  0  0  0  0  0  0  0  0  0  0
    5.5167    0.3083    0.0000 C   0  0  0  0  0  0  0  0  0  0  0  0
    4.0042    2.0333    0.0000 O   0  0  0  0  0  0  0  0  0  0  0  0
    5.0125   -0.2542    0.0000 C   0  0  0  0  0  0  0  0  0  0  0  0
    3.3042    2.6958    0.0000 C   0  0  0  0  0  0  0  0  0  0  0  0
    1.4667    0.7625    0.0000 C   0  0  0  0  0  0  0  0  0  0  0  0
    5.5167    1.6083    0.0000 C   0  0  0  0  0  0  0  0  0  0  0  0
    0.7167    2.0625    0.0000 C   0  0  0  0  0  0  0  0  0  0  0  0
    6.2667    0.3083    0.0000 C   0  0  0  0  0  0  0  0  0  0  0  0
    0.7167    0.7625    0.0000 C   0  0  0  0  0  0  0  0  0  0  0  0
    6.2667    1.6083    0.0000 C   0  0  0  0  0  0  0  0  0  0  0  0
    0.3417    1.4125    0.0000 C   0  0  0  0  0  0  0  0  0  0  0  0
    6.6417    0.9583    0.0000 C   0  0  0  0  0  0  0  0  0  0  0  0
  2  5  1  0  0  0  0
  3  4  2  0  0  0  0
  4  1  1  0  0  0  0
  5  6  1  0  0  0  0
  6  1  1  0  0  0  0
  7  1  1  0  0  0  0
  8  7  1  0  0  0  0
  9  2  1  0  0  0  0
 10  2  1  0  0  0  0
 11  9  1  0  0  0  0
 12  5  2  0  0  0  0
 13 10  1  0  0  0  0
 14  4  1  0  0  0  0
 15  7  2  0  0  0  0
 16  9  2  0  0  0  0
 17  8  2  0  0  0  0
 18 11  2  0  0  0  0
 19 15  1  0  0  0  0
 20 16  1  0  0  0  0
 21 19  2  0  0  0  0
 22 20  2  0  0  0  0
  3  8  1  0  0  0  0
 17 21  1  0  0  0  0
 13 11  1  0  0  0  0
 18 22  1  0  0  0  0
M  END
>  <ID> (9026735)
9026735

>  <Supplier> (9026735)
ChemBridge

>  <clogP> (9026735)
3.080000000000000e+000

>  <RB> (9026735)
2

>  <tPSA> (9026735)
3.813000000000000e+001

>  <Hacc> (9026735)
2

>  <Hdon> (9026735)
0

>  <LogSw> (9026735)
-3.955000000000000e+000

>  <Group> (9026735)
3

>  <Core> (9026735)
457

$$$$
5549829
  -ISIS-  03310818222D

 32 35  0  0  0  0  0  0  0  0999 V2000
    1.9667   -2.9375    0.0000 S   0  0  3  0  0  0  0  0  0  0  0  0
    1.9667   -2.1875    0.0000 N   0  0  3  0  0  0  0  0  0  0  0  0
    1.3167   -1.8042    0.0000 C   0  0  0  0  0  0  0  0  0  0  0  0
    2.6167   -1.8042    0.0000 C   0  0  0  0  0  0  0  0  0  0  0  0
    3.2792   -2.1875    0.0000 C   0  0  0  0  0  0  0  0  0  0  0  0
    5.8792   -2.2000    0.0000 C   0  0  0  0  0  0  0  0  0  0  0  0
    2.1917   -3.7000    0.0000 O   0  0  0  0  0  0  0  0  0  0  0  0
    2.8167   -2.9375    0.0000 O   0  0  0  0  0  0  0  0  0  0  0  0
    1.3042   -3.3042    0.0000 C   0  0  0  0  0  0  0  0  0  0  0  0
    5.2292   -1.8167    0.0000 C   0  0  0  0  0  0  0  0  0  0  0  0
    3.9292   -1.8042    0.0000 N   0  0  0  0  0  0  0  0  0  0  0  0
    5.8792   -2.9500    0.0000 C   0  0  0  0  0  0  0  0  0  0  0  0
    1.3167   -1.0500    0.0000 C   0  0  0  0  0  0  0  0  0  0  0  0
    0.6667   -2.1792    0.0000 C   0  0  0  0  0  0  0  0  0  0  0  0
    4.5792   -2.1875    0.0000 C   0  0  0  0  0  0  0  0  0  0  0  0
    6.5292   -1.8167    0.0000 O   0  0  0  0  0  0  0  0  0  0  0  0
    6.5167   -3.3167    0.0000 O   0  0  0  0  0  0  0  0  0  0  0  0
    3.2667   -2.9375    0.0000 O   0  0  0  0  0  0  0  0  0  0  0  0
    0.6667   -0.6667    0.0000 C   0  0  0  0  0  0  0  0  0  0  0  0
    0.0167   -1.8042    0.0000 C   0  0  0  0  0  0  0  0  0  0  0  0
    5.2167   -3.3167    0.0000 C   0  0  0  0  0  0  0  0  0  0  0  0
    0.0167   -1.0500    0.0000 C   0  0  0  0  0  0  0  0  0  0  0  0
    4.5792   -2.9375    0.0000 C   0  0  0  0  0  0  0  0  0  0  0  0
    7.1792   -2.2000    0.0000 C   0  0  0  0  0  0  0  0  0  0  0  0
    7.1792   -2.9500    0.0000 C   0  0  0  0  0  0  0  0  0  0  0  0
    1.3042   -4.0542    0.0000 C   0  0  0  0  0  0  0  0  0  0  0  0
    0.6667   -2.9292    0.0000 C   0  0  0  0  0  0  0  0  0  0  0  0
   -0.6208   -2.1792    0.0000 C   0  0  0  0  0  0  0  0  0  0  0  0
    0.6542    0.0708    0.0000 C   0  0  0  0  0  0  0  0  0  0  0  0
    0.6667   -4.4292    0.0000 C   0  0  0  0  0  0  0  0  0  0  0  0
    0.0167   -3.3042    0.0000 C   0  0  0  0  0  0  0  0  0  0  0  0
    0.0167   -4.0542    0.0000 C   0  0  0  0  0  0  0  0  0  0  0  0
  2  1  1  0  0  0  0
  3  2  1  0  0  0  0
  4  2  1  0  0  0  0
  5  4  1  0  0  0  0
  6 10  2  0  0  0  0
  7  1  2  0  0  0  0
  8  1  2  0  0  0  0
  9  1  1  0  0  0  0
 10 15  1  0  0  0  0
 11  5  1  0  0  0  0
 12 21  2  0  0  0  0
 13  3  2  0  0  0  0
 14  3  1  0  0  0  0
 15 11  1  0  0  0  0
 16  6  1  0  0  0  0
 17 12  1  0  0  0  0
 18  5  2  0  0  0  0
 19 13  1  0  0  0  0
 20 14  2  0  0  0  0
 21 23  1  0  0  0  0
 22 20  1  0  0  0  0
 23 15  2  0  0  0  0
 24 16  1  0  0  0  0
 25 17  1  0  0  0  0
 26  9  2  0  0  0  0
 27  9  1  0  0  0  0
 28 20  1  0  0  0  0
 29 19  1  0  0  0  0
 30 26  1  0  0  0  0
 31 27  2  0  0  0  0
 32 31  1  0  0  0  0
 32 30  2  0  0  0  0
 22 19  2  0  0  0  0
  6 12  1  0  0  0  0
 24 25  1  0  0  0  0
M  END
>  <ID> (5549829)
5549829

>  <Supplier> (5549829)
ChemBridge

>  <clogP> (5549829)
4.750000000000000e+000

>  <RB> (5549829)
5

>  <tPSA> (5549829)
8.494000000000000e+001

>  <Hacc> (5549829)
5

>  <Hdon> (5549829)
1

>  <LogSw> (5549829)
-6.555000000000000e+000

>  <Group> (5549829)
3

>  <Core> (5549829)
084

$$$$
6681996
  -ISIS-  03310818242D

 25 27  0  0  0  0  0  0  0  0999 V2000
   -1.6625    1.5458    0.0000 C   0  0  0  0  0  0  0  0  0  0  0  0
   -1.8208    2.0458    0.0000 C   0  0  0  0  0  0  0  0  0  0  0  0
   -2.0625    1.2458    0.0000 S   0  0  0  0  0  0  0  0  0  0  0  0
   -2.3208    2.0458    0.0000 C   0  0  0  0  0  0  0  0  0  0  0  0
   -2.4833    1.5458    0.0000 C   0  0  0  0  0  0  0  0  0  0  0  0
   -1.1458    1.3625    0.0000 N   0  0  0  0  0  0  0  0  0  0  0  0
   -1.5000    2.4833    0.0000 C   0  0  0  0  0  0  0  0  0  0  0  0
   -1.0458    0.8458    0.0000 C   0  0  0  0  0  0  0  0  0  0  0  0
    0.0500   -0.0500    0.0000 N   0  0  3  0  0  0  0  0  0  0  0  0
   -0.5458    0.6625    0.0000 C   0  0  0  0  0  0  0  0  0  0  0  0
   -1.7458    2.9625    0.0000 O   0  0  0  0  0  0  0  0  0  0  0  0
   -1.4458    0.5000    0.0000 O   0  0  0  0  0  0  0  0  0  0  0  0
   -0.4458    0.1208    0.0000 C   0  0  0  0  0  0  0  0  0  0  0  0
    0.4500    0.2833    0.0000 C   0  0  0  0  0  0  0  0  0  0  0  0
    0.1500   -0.5500    0.0000 C   0  0  0  0  0  0  0  0  0  0  0  0
   -0.9833    2.4458    0.0000 O   0  0  0  0  0  0  0  0  0  0  0  0
   -2.6833    2.4208    0.0000 C   0  0  0  0  0  0  0  0  0  0  0  0
   -3.0000    1.4208    0.0000 C   0  0  0  0  0  0  0  0  0  0  0  0
    0.6292   -0.7500    0.0000 C   0  0  0  0  0  0  0  0  0  0  0  0
    0.9500    0.1208    0.0000 C   0  0  0  0  0  0  0  0  0  0  0  0
    1.0500   -0.4000    0.0000 C   0  0  3  0  0  0  0  0  0  0  0  0
   -0.7625    1.9625    0.0000 C   0  0  0  0  0  0  0  0  0  0  0  0
    1.5667   -0.5292    0.0000 C   0  0  0  0  0  0  0  0  0  0  0  0
   -3.1833    2.3000    0.0000 C   0  0  0  0  0  0  0  0  0  0  0  0
   -3.3458    1.8000    0.0000 C   0  0  0  0  0  0  0  0  0  0  0  0
  2  1  2  0  0  0  0
  3  1  1  0  0  0  0
  4  2  1  0  0  0  0
  5  3  1  0  0  0  0
  6  1  1  0  0  0  0
  7  2  1  0  0  0  0
  8  6  1  0  0  0  0
  9 13  1  0  0  0  0
 10  8  1  0  0  0  0
 11  7  2  0  0  0  0
 12  8  2  0  0  0  0
 13 10  1  0  0  0  0
 14  9  1  0  0  0  0
 15  9  1  0  0  0  0
 16  7  1  0  0  0  0
 17  4  1  0  0  0  0
 18  5  1  0  0  0  0
 19 15  1  0  0  0  0
 20 14  1  0  0  0  0
 21 19  1  0  0  0  0
 22 16  1  0  0  0  0
 23 21  1  0  0  0  0
 24 17  1  0  0  0  0
 25 18  1  0  0  0  0
  5  4  2  0  0  0  0
 25 24  1  0  0  0  0
 20 21  1  0  0  0  0
M  END
>  <ID> (6681996)
6681996

>  <Supplier> (6681996)
ChemBridge

>  <clogP> (6681996)
4.970000000000002e+000

>  <RB> (6681996)
5

>  <tPSA> (6681996)
5.863999999999998e+001

>  <Hacc> (6681996)
4

>  <Hdon> (6681996)
1

>  <LogSw> (6681996)
-6.101999999999999e+000

>  <Group> (6681996)
3

>  <Core> (6681996)
098

$$$$
7296112
  -ISIS-  03310818262D

 24 26  0  0  0  0  0  0  0  0999 V2000
    2.2292   -2.4792    0.0000 C   0  0  0  0  0  0  0  0  0  0  0  0
    2.6917   -1.6625    0.0000 C   0  0  0  0  0  0  0  0  0  0  0  0
    6.5000   -3.2792    0.0000 C   0  0  0  0  0  0  0  0  0  0  0  0
    6.9792   -4.0917    0.0000 N   0  0  3  0  0  0  0  0  0  0  0  0
    2.7125   -3.2917    0.0000 N   0  0  0  0  0  0  0  0  0  0  0  0
    5.5542   -3.2792    0.0000 C   0  0  0  0  0  0  0  0  0  0  0  0
    2.2167   -0.8542    0.0000 C   0  0  0  0  0  0  0  0  0  0  0  0
    1.2917   -2.4875    0.0000 O   0  0  0  0  0  0  0  0  0  0  0  0
    6.9667   -2.4500    0.0000 O   0  0  0  0  0  0  0  0  0  0  0  0
    3.6542   -3.2875    0.0000 C   0  0  0  0  0  0  0  0  0  0  0  0
    5.0792   -4.1042    0.0000 C   0  0  0  0  0  0  0  0  0  0  0  0
    5.0792   -2.4625    0.0000 C   0  0  0  0  0  0  0  0  0  0  0  0
    1.2792   -0.8625    0.0000 Cl  0  0  0  0  0  0  0  0  0  0  0  0
    4.1250   -2.4625    0.0000 C   0  0  0  0  0  0  0  0  0  0  0  0
    4.1292   -4.1125    0.0000 C   0  0  0  0  0  0  0  0  0  0  0  0
    3.6292   -1.6542    0.0000 C   0  0  0  0  0  0  0  0  0  0  0  0
    7.9292   -4.0917    0.0000 C   0  0  0  0  0  0  0  0  0  0  0  0
    6.5167   -4.9250    0.0000 C   0  0  0  0  0  0  0  0  0  0  0  0
    2.6792   -0.0417    0.0000 C   0  0  0  0  0  0  0  0  0  0  0  0
    4.0917   -0.8417    0.0000 C   0  0  0  0  0  0  0  0  0  0  0  0
    8.4042   -4.8917    0.0000 C   0  0  0  0  0  0  0  0  0  0  0  0
    6.9917   -5.7375    0.0000 C   0  0  0  0  0  0  0  0  0  0  0  0
    3.6167   -0.0292    0.0000 C   0  0  0  0  0  0  0  0  0  0  0  0
    7.9417   -5.7250    0.0000 C   0  0  0  0  0  0  0  0  0  0  0  0
  2  1  1  0  0  0  0
  3  6  1  0  0  0  0
  4  3  1  0  0  0  0
  5  1  1  0  0  0  0
  6 11  1  0  0  0  0
  7  2  2  0  0  0  0
  8  1  2  0  0  0  0
  9  3  2  0  0  0  0
 10  5  1  0  0  0  0
 11 15  2  0  0  0  0
 12 14  1  0  0  0  0
 13  7  1  0  0  0  0
 14 10  2  0  0  0  0
 15 10  1  0  0  0  0
 16  2  1  0  0  0  0
 17  4  1  0  0  0  0
 18  4  1  0  0  0  0
 19  7  1  0  0  0  0
 20 16  2  0  0  0  0
 21 17  1  0  0  0  0
 22 18  1  0  0  0  0
 23 20  1  0  0  0  0
 24 22  1  0  0  0  0
  6 12  2  0  0  0  0
 23 19  2  0  0  0  0
 24 21  1  0  0  0  0
M  END
>  <ID> (7296112)
7296112

>  <Supplier> (7296112)
ChemBridge

>  <clogP> (7296112)
2.730000000000000e+000

>  <RB> (7296112)
3

>  <tPSA> (7296112)
4.941000000000002e+001

>  <Hacc> (7296112)
2

>  <Hdon> (7296112)
1

>  <LogSw> (7296112)
-4.031000000000002e+000

>  <Group> (7296112)
3

>  <Core> (7296112)
150

$$$$
5971890
  -ISIS-  03310818232D

 30 34  0  0  0  0  0  0  0  0999 V2000
    2.8292   -1.4042    0.0000 C   0  0  0  0  0  0  0  0  0  0  0  0
    2.4667   -0.6792    0.0000 C   0  0  0  0  0  0  0  0  0  0  0  0
    2.4792   -2.1542    0.0000 C   0  0  3  0  0  0  0  0  0  0  0  0
    1.6792   -2.3500    0.0000 N   0  0  0  0  0  0  0  0  0  0  0  0
    3.6500   -1.4542    0.0000 C   0  0  0  0  0  0  0  0  0  0  0  0
    1.6667   -0.4875    0.0000 N   0  0  0  0  0  0  0  0  0  0  0  0
    1.0167   -1.8375    0.0000 C   0  0  0  0  0  0  0  0  0  0  0  0
    2.9167    0.0000    0.0000 C   0  0  0  0  0  0  0  0  0  0  0  0
    3.7500   -0.0500    0.0000 C   0  0  3  0  0  0  0  0  0  0  0  0
    1.0167   -1.0000    0.0000 C   0  0  0  0  0  0  0  0  0  0  0  0
    4.1042   -0.7792    0.0000 C   0  0  0  0  0  0  0  0  0  0  0  0
    3.0000   -2.8042    0.0000 C   0  0  0  0  0  0  0  0  0  0  0  0
    4.2000    0.6333    0.0000 C   0  0  0  0  0  0  0  0  0  0  0  0
    4.0167   -2.2042    0.0000 O   0  0  0  0  0  0  0  0  0  0  0  0
    4.3292   -3.3042    0.0000 N   0  0  0  0  0  0  0  0  0  0  0  0
    3.8375    1.3708    0.0000 C   0  0  0  0  0  0  0  0  0  0  0  0
    5.0292    0.5708    0.0000 C   0  0  0  0  0  0  0  0  0  0  0  0
    5.1167    2.0000    0.0000 C   0  0  0  0  0  0  0  0  0  0  0  0
    5.4792    1.2625    0.0000 C   0  0  0  0  0  0  0  0  0  0  0  0
    4.2875    2.0500    0.0000 C   0  0  0  0  0  0  0  0  0  0  0  0
    3.8042   -2.6667    0.0000 C   0  0  0  0  0  0  0  0  0  0  0  0
    5.5792    2.6958    0.0000 O   0  0  0  0  0  0  0  0  0  0  0  0
    0.3000   -2.2542    0.0000 C   0  0  0  0  0  0  0  0  0  0  0  0
    0.3000   -0.5875    0.0000 C   0  0  0  0  0  0  0  0  0  0  0  0
    2.7000   -3.5667    0.0000 C   0  0  0  0  0  0  0  0  0  0  0  0
    4.0375   -4.0875    0.0000 C   0  0  0  0  0  0  0  0  0  0  0  0
    6.4000    2.6333    0.0000 C   0  0  0  0  0  0  0  0  0  0  0  0
    3.2167   -4.2167    0.0000 C   0  0  0  0  0  0  0  0  0  0  0  0
   -0.4000   -1.0042    0.0000 C   0  0  0  0  0  0  0  0  0  0  0  0
   -0.4125   -1.8375    0.0000 C   0  0  0  0  0  0  0  0  0  0  0  0
  2  1  2  0  0  0  0
  3  1  1  0  0  0  0
  4  3  1  0  0  0  0
  5  1  1  0  0  0  0
  6  2  1  0  0  0  0
  7  4  1  0  0  0  0
  8  2  1  0  0  0  0
  9 11  1  0  0  0  0
 10  6  1  0  0  0  0
 11  5  1  0  0  0  0
 12  3  1  0  0  0  0
 13  9  1  0  0  0  0
 14  5  2  0  0  0  0
 15 21  2  0  0  0  0
 16 13  1  0  0  0  0
 17 13  2  0  0  0  0
 18 19  2  0  0  0  0
 19 17  1  0  0  0  0
 20 16  2  0  0  0  0
 21 12  1  0  0  0  0
 22 18  1  0  0  0  0
 23  7  2  0  0  0  0
 24 10  2  0  0  0  0
 25 12  2  0  0  0  0
 26 28  2  0  0  0  0
 27 22  1  0  0  0  0
 28 25  1  0  0  0  0
 29 24  1  0  0  0  0
 30 23  1  0  0  0  0
  9  8  1  0  0  0  0
 10  7  1  0  0  0  0
 15 26  1  0  0  0  0
 29 30  2  0  0  0  0
 20 18  1  0  0  0  0
M  END
>  <ID> (5971890)
5971890

>  <Supplier> (5971890)
ChemBridge

>  <clogP> (5971890)
2.530000000000000e+000

>  <RB> (5971890)
2

>  <tPSA> (5971890)
6.324999999999997e+001

>  <Hacc> (5971890)
3

>  <Hdon> (5971890)
2

>  <LogSw> (5971890)
-2.958000000000000e+000

>  <Group> (5971890)
3

>  <Core> (5971890)
102

$$$$
6681992
  -ISIS-  03310818242D

 31 33  0  0  0  0  0  0  0  0999 V2000
    5.2292   -3.0917    0.0000 S   0  0  3  0  0  0  0  0  0  0  0  0
    5.2250   -3.9250    0.0000 N   0  0  3  0  0  0  0  0  0  0  0  0
    5.9375   -4.3375    0.0000 C   0  0  0  0  0  0  0  0  0  0  0  0
    6.6542   -3.9292    0.0000 C   0  0  0  0  0  0  0  0  0  0  0  0
    5.2250   -2.2667    0.0000 C   0  0  0  0  0  0  0  0  0  0  0  0
   10.2500   -2.6875    0.0000 C   0  0  0  0  0  0  0  0  0  0  0  0
    4.4000   -3.0917    0.0000 O   0  0  0  0  0  0  0  0  0  0  0  0
    6.0542   -3.0917    0.0000 O   0  0  0  0  0  0  0  0  0  0  0  0
    7.3750   -4.3417    0.0000 N   0  0  0  0  0  0  0  0  0  0  0  0
    9.5292   -3.1000    0.0000 C   0  0  0  0  0  0  0  0  0  0  0  0
    4.5042   -4.3292    0.0000 C   0  0  3  0  0  0  0  0  0  0  0  0
    6.6625   -3.1000    0.0000 O   0  0  0  0  0  0  0  0  0  0  0  0
   10.2500   -1.8542    0.0000 O   0  0  0  0  0  0  0  0  0  0  0  0
    4.5042   -1.8542    0.0000 C   0  0  0  0  0  0  0  0  0  0  0  0
    5.9417   -1.8417    0.0000 C   0  0  0  0  0  0  0  0  0  0  0  0
    8.8125   -2.6875    0.0000 C   0  0  0  0  0  0  0  0  0  0  0  0
    9.5292   -3.9375    0.0000 C   0  0  0  0  0  0  0  0  0  0  0  0
    8.0917   -3.9292    0.0000 C   0  0  0  0  0  0  0  0  0  0  0  0
    5.2167   -0.6042    0.0000 C   0  0  0  0  0  0  0  0  0  0  0  0
   10.9667   -3.1000    0.0000 O   0  0  0  0  0  0  0  0  0  0  0  0
    8.8125   -4.3500    0.0000 C   0  0  0  0  0  0  0  0  0  0  0  0
    8.1000   -3.1042    0.0000 C   0  0  0  0  0  0  0  0  0  0  0  0
    5.9375   -1.0167    0.0000 C   0  0  0  0  0  0  0  0  0  0  0  0
    4.5000   -1.0292    0.0000 C   0  0  0  0  0  0  0  0  0  0  0  0
    5.2125    0.2208    0.0000 F   0  0  0  0  0  0  0  0  0  0  0  0
    3.7917   -3.9167    0.0000 C   0  0  0  0  0  0  0  0  0  0  0  0
    4.5042   -5.1542    0.0000 C   0  0  0  0  0  0  0  0  0  0  0  0
   11.6792   -2.6792    0.0000 C   0  0  0  0  0  0  0  0  0  0  0  0
    3.0792   -4.3167    0.0000 C   0  0  0  0  0  0  0  0  0  0  0  0
    3.7875   -5.5625    0.0000 C   0  0  0  0  0  0  0  0  0  0  0  0
    3.0750   -5.1417    0.0000 C   0  0  0  0  0  0  0  0  0  0  0  0
  2  1  1  0  0  0  0
  3  2  1  0  0  0  0
  4  3  1  0  0  0  0
  5  1  1  0  0  0  0
  6 10  1  0  0  0  0
  7  1  2  0  0  0  0
  8  1  2  0  0  0  0
  9  4  1  0  0  0  0
 10 16  2  0  0  0  0
 11  2  1  0  0  0  0
 12  4  2  0  0  0  0
 13  6  2  0  0  0  0
 14  5  1  0  0  0  0
 15  5  2  0  0  0  0
 16 22  1  0  0  0  0
 17 21  2  0  0  0  0
 18  9  1  0  0  0  0
 19 23  2  0  0  0  0
 20  6  1  0  0  0  0
 21 18  1  0  0  0  0
 22 18  2  0  0  0  0
 23 15  1  0  0  0  0
 24 14  2  0  0  0  0
 25 19  1  0  0  0  0
 26 11  1  0  0  0  0
 27 11  1  0  0  0  0
 28 20  1  0  0  0  0
 29 26  1  0  0  0  0
 30 27  1  0  0  0  0
 31 30  1  0  0  0  0
 24 19  1  0  0  0  0
 31 29  1  0  0  0  0
 10 17  1  0  0  0  0
M  END
>  <ID> (6681992)
6681992

>  <Supplier> (6681992)
ChemBridge

>  <clogP> (6681992)
5.030000000000000e+000

>  <RB> (6681992)
6

>  <tPSA> (6681992)
9.278000000000000e+001

>  <Hacc> (6681992)
6

>  <Hdon> (6681992)
1

>  <LogSw> (6681992)
-6.765000000000000e+000

>  <Group> (6681992)
2

>  <Core> (6681992)
568

$$$$
5549825
  -ISIS-  03310818222D

 23 26  0  0  0  0  0  0  0  0999 V2000
   -0.4125    2.2833    0.0000 C   0  0  0  0  0  0  0  0  0  0  0  0
   -0.8125    2.8208    0.0000 N   0  0  0  0  0  0  0  0  0  0  0  0
   -0.8125    1.6833    0.0000 N   0  0  3  0  0  0  0  0  0  0  0  0
    0.3042    2.3000    0.0000 N   0  0  0  0  0  0  0  0  0  0  0  0
   -1.4708    1.9000    0.0000 C   0  0  0  0  0  0  0  0  0  0  0  0
   -1.4708    2.6208    0.0000 C   0  0  0  0  0  0  0  0  0  0  0  0
    0.6875    1.7000    0.0000 N   0  0  0  0  0  0  0  0  0  0  0  0
    1.7042    2.3458    0.0000 C   0  0  0  0  0  0  0  0  0  0  0  0
    2.4042    2.3708    0.0000 C   0  0  0  0  0  0  0  0  0  0  0  0
    1.3875    1.7208    0.0000 C   0  0  0  0  0  0  0  0  0  0  0  0
    2.7792    1.7833    0.0000 C   0  0  0  0  0  0  0  0  0  0  0  0
    1.7542    1.1208    0.0000 C   0  0  0  0  0  0  0  0  0  0  0  0
    2.4542    1.1500    0.0000 C   0  0  0  0  0  0  0  0  0  0  0  0
   -0.5708    1.0208    0.0000 C   0  0  0  0  0  0  0  0  0  0  0  0
    3.4792    1.8208    0.0000 O   0  0  0  0  0  0  0  0  0  0  0  0
   -2.0958    1.5458    0.0000 C   0  0  0  0  0  0  0  0  0  0  0  0
   -2.0958    2.9625    0.0000 C   0  0  0  0  0  0  0  0  0  0  0  0
    2.7292    3.0000    0.0000 C   0  0  0  0  0  0  0  0  0  0  0  0
    1.3375    2.9458    0.0000 C   0  0  0  0  0  0  0  0  0  0  0  0
   -2.7125    1.9000    0.0000 C   0  0  0  0  0  0  0  0  0  0  0  0
   -2.7125    2.6208    0.0000 C   0  0  0  0  0  0  0  0  0  0  0  0
    2.3542    3.6083    0.0000 C   0  0  0  0  0  0  0  0  0  0  0  0
    1.6542    3.5708    0.0000 C   0  0  0  0  0  0  0  0  0  0  0  0
  2  1  2  0  0  0  0
  3  1  1  0  0  0  0
  4  1  1  0  0  0  0
  5  3  1  0  0  0  0
  6  2  1  0  0  0  0
  7  4  2  0  0  0  0
  8 10  2  0  0  0  0
  9  8  1  0  0  0  0
 10  7  1  0  0  0  0
 11 13  1  0  0  0  0
 12 10  1  0  0  0  0
 13 12  2  0  0  0  0
 14  3  1  0  0  0  0
 15 11  1  0  0  0  0
 16  5  1  0  0  0  0
 17  6  1  0  0  0  0
 18  9  1  0  0  0  0
 19  8  1  0  0  0  0
 20 16  2  0  0  0  0
 21 17  2  0  0  0  0
 22 23  1  0  0  0  0
 23 19  2  0  0  0  0
  6  5  2  0  0  0  0
 21 20  1  0  0  0  0
  9 11  2  0  0  0  0
 22 18  2  0  0  0  0
M  END
>  <ID> (5549825)
5549825

>  <Supplier> (5549825)
ChemBridge

>  <clogP> (5549825)
4.570000000000000e+000

>  <RB> (5549825)
2

>  <tPSA> (5549825)
6.277000000000000e+001

>  <Hacc> (5549825)
5

>  <Hdon> (5549825)
1

>  <LogSw> (5549825)
-6.270000000000001e+000

>  <Group> (5549825)
1

$$$$
5549827
  -ISIS-  03310818222D

 22 23  0  0  0  0  0  0  0  0999 V2000
   -2.2125    1.9625    0.0000 S   0  0  3  0  0  0  0  0  0  0  0  0
   -2.2125    1.1000    0.0000 C   0  0  0  0  0  0  0  0  0  0  0  0
   -2.9708   -0.2000    0.0000 C   0  0  0  0  0  0  0  0  0  0  0  0
   -2.9500    0.6625    0.0000 C   0  0  0  0  0  0  0  0  0  0  0  0
   -3.7333   -0.6375    0.0000 N   0  0  0  0  0  0  0  0  0  0  0  0
   -4.4708   -0.2000    0.0000 C   0  0  0  0  0  0  0  0  0  0  0  0
   -1.3333    1.9625    0.0000 O   0  0  0  0  0  0  0  0  0  0  0  0
   -3.0708    1.9625    0.0000 O   0  0  0  0  0  0  0  0  0  0  0  0
   -2.2125    2.8458    0.0000 N   0  0  0  0  0  0  0  0  0  0  0  0
   -2.2125   -0.6375    0.0000 C   0  0  0  0  0  0  0  0  0  0  0  0
   -1.4500    0.6458    0.0000 C   0  0  0  0  0  0  0  0  0  0  0  0
   -4.4958    0.6625    0.0000 O   0  0  0  0  0  0  0  0  0  0  0  0
   -1.4708   -0.2167    0.0000 C   0  0  0  0  0  0  0  0  0  0  0  0
   -5.9958   -0.2167    0.0000 O   0  0  0  0  0  0  0  0  0  0  0  0
   -5.2333   -0.6375    0.0000 C   0  0  0  0  0  0  0  0  0  0  0  0
   -6.7500   -0.6542    0.0000 C   0  0  0  0  0  0  0  0  0  0  0  0
   -2.2125   -1.5167    0.0000 C   0  0  0  0  0  0  0  0  0  0  0  0
   -7.4792   -0.2375    0.0000 C   0  0  0  0  0  0  0  0  0  0  0  0
   -6.7500   -1.5375    0.0000 C   0  0  0  0  0  0  0  0  0  0  0  0
   -8.2500   -0.6542    0.0000 C   0  0  0  0  0  0  0  0  0  0  0  0
   -7.4792   -1.9542    0.0000 C   0  0  0  0  0  0  0  0  0  0  0  0
   -8.2667   -1.5167    0.0000 C   0  0  0  0  0  0  0  0  0  0  0  0
  2  1  1  0  0  0  0
  3  4  2  0  0  0  0
  4  2  1  0  0  0  0
  5  3  1  0  0  0  0
  6  5  1  0  0  0  0
  7  1  2  0  0  0  0
  8  1  2  0  0  0  0
  9  1  1  0  0  0  0
 10 13  2  0  0  0  0
 11  2  2  0  0  0  0
 12  6  2  0  0  0  0
 13 11  1  0  0  0  0
 14 15  1  0  0  0  0
 15  6  1  0  0  0  0
 16 14  1  0  0  0  0
 17 10  1  0  0  0  0
 18 16  2  0  0  0  0
 19 16  1  0  0  0  0
 20 18  1  0  0  0  0
 21 19  2  0  0  0  0
 22 21  1  0  0  0  0
  3 10  1  0  0  0  0
 20 22  2  0  0  0  0
M  END
>  <ID> (5549827)
5549827

>  <Supplier> (5549827)
ChemBridge

>  <clogP> (5549827)
1.010000000000000e+000

>  <RB> (5549827)
5

>  <tPSA> (5549827)
9.849000000000002e+001

>  <Hacc> (5549827)
5

>  <Hdon> (5549827)
2

>  <LogSw> (5549827)
-2.399000000000000e+000

>  <Group> (5549827)
3

>  <Core> (5549827)
236

$$$$
6599453
  -ISIS-  03310818242D

 30 33  0  0  0  0  0  0  0  0999 V2000
    7.0292    8.4792    0.0000 N   0  0  0  0  0  0  0  0  0  0  0  0
    5.6417    8.4792    0.0000 C   0  0  0  0  0  0  0  0  0  0  0  0
    7.7292    9.6917    0.0000 C   0  0  0  0  0  0  0  0  0  0  0  0
    2.1125    2.4333    0.0000 N   0  0  3  0  0  0  0  0  0  0  0  0
    4.9292    7.2542    0.0000 N   0  0  0  0  0  0  0  0  0  0  0  0
    4.9417    9.6917    0.0000 S   0  0  0  0  0  0  0  0  0  0  0  0
    9.1292    9.6917    0.0000 C   0  0  0  0  0  0  0  0  0  0  0  0
    2.8167    3.6333    0.0000 C   0  0  0  0  0  0  0  0  0  0  0  0
    7.0292   10.9000    0.0000 O   0  0  0  0  0  0  0  0  0  0  0  0
   11.9542    9.6917    0.0000 C   0  0  0  0  0  0  0  0  0  0  0  0
    9.8417   10.9042    0.0000 C   0  0  0  0  0  0  0  0  0  0  0  0
    9.8417    8.4667    0.0000 C   0  0  0  0  0  0  0  0  0  0  0  0
   11.2417    8.4667    0.0000 C   0  0  0  0  0  0  0  0  0  0  0  0
   11.2542   10.9042    0.0000 C   0  0  0  0  0  0  0  0  0  0  0  0
    2.1167    4.8542    0.0000 C   0  0  0  0  0  0  0  0  0  0  0  0
    4.2292    3.6333    0.0000 C   0  0  0  0  0  0  0  0  0  0  0  0
   13.3542    9.6792    0.0000 C   0  0  0  0  0  0  0  0  0  0  0  0
    4.2167    6.0625    0.0000 C   0  0  0  0  0  0  0  0  0  0  0  0
    4.9292    4.8292    0.0000 C   0  0  0  0  0  0  0  0  0  0  0  0
    2.8292    6.0625    0.0000 C   0  0  0  0  0  0  0  0  0  0  0  0
    0.7125    2.4458    0.0000 C   0  0  0  0  0  0  0  0  0  0  0  0
    2.7917    1.2125    0.0000 C   0  0  0  0  0  0  0  0  0  0  0  0
   14.0542   10.9000    0.0000 C   0  0  0  0  0  0  0  0  0  0  0  0
   14.0417    8.4625    0.0000 C   0  0  0  0  0  0  0  0  0  0  0  0
    2.0917    0.0000    0.0000 C   0  0  0  0  0  0  0  0  0  0  0  0
    0.0000    1.2333    0.0000 C   0  0  0  0  0  0  0  0  0  0  0  0
   15.4375    8.4625    0.0000 C   0  0  0  0  0  0  0  0  0  0  0  0
   15.4542   10.9000    0.0000 C   0  0  0  0  0  0  0  0  0  0  0  0
   16.1542    9.6667    0.0000 C   0  0  0  0  0  0  0  0  0  0  0  0
    0.7000    0.0083    0.0000 C   0  0  0  0  0  0  0  0  0  0  0  0
  2  1  1  0  0  0  0
  3  1  1  0  0  0  0
  4  8  1  0  0  0  0
  5  2  1  0  0  0  0
  6  2  2  0  0  0  0
  7  3  1  0  0  0  0
  8 15  2  0  0  0  0
  9  3  2  0  0  0  0
 10 13  2  0  0  0  0
 11  7  1  0  0  0  0
 12  7  2  0  0  0  0
 13 12  1  0  0  0  0
 14 11  2  0  0  0  0
 15 20  1  0  0  0  0
 16 19  2  0  0  0  0
 17 10  1  0  0  0  0
 18  5  1  0  0  0  0
 19 18  1  0  0  0  0
 20 18  2  0  0  0  0
 21  4  1  0  0  0  0
 22  4  1  0  0  0  0
 23 17  2  0  0  0  0
 24 17  1  0  0  0  0
 25 22  1  0  0  0  0
 26 21  1  0  0  0  0
 27 24  2  0  0  0  0
 28 23  1  0  0  0  0
 29 27  1  0  0  0  0
 30 25  1  0  0  0  0
 10 14  1  0  0  0  0
  8 16  1  0  0  0  0
 28 29  2  0  0  0  0
 26 30  1  0  0  0  0
M  END
>  <ID> (6599453)
6599453

>  <Supplier> (6599453)
ChemBridge

>  <clogP> (6599453)
5.800000000000000e+000

>  <RB> (6599453)
4

>  <tPSA> (6599453)
4.437000000000001e+001

>  <Hacc> (6599453)
1

>  <Hdon> (6599453)
2

>  <LogSw> (6599453)
-7.182000000000000e+000

>  <Group> (6599453)
1

>  <Core> (6599453)
071

$$$$
6599452
  -ISIS-  03310818242D

 25 26  0  0  0  0  0  0  0  0999 V2000
   -3.6125    0.9458    0.0000 C   0  0  0  0  0  0  0  0  0  0  0  0
   -4.7208    0.2958    0.0000 N   0  0  3  0  0  0  0  0  0  0  0  0
   -4.3625    0.9458    0.0000 C   0  0  0  0  0  0  0  0  0  0  0  0
   -4.3500   -0.3375    0.0000 C   0  0  0  0  0  0  0  0  0  0  0  0
   -3.2458    0.3000    0.0000 C   0  0  0  0  0  0  0  0  0  0  0  0
   -3.6125   -0.3500    0.0000 N   0  0  3  0  0  0  0  0  0  0  0  0
   -3.2625    1.5833    0.0000 N   0  3  0  0  0  0  0  0  0  0  0  0
   -2.5000    0.2958    0.0000 C   0  0  0  0  0  0  0  0  0  0  0  0
   -2.0958   -0.3375    0.0000 C   0  0  0  0  0  0  0  0  0  0  0  0
   -4.7208   -0.9875    0.0000 O   0  0  0  0  0  0  0  0  0  0  0  0
   -4.7333    1.5708    0.0000 O   0  0  0  0  0  0  0  0  0  0  0  0
   -0.9458   -0.9292    0.0000 C   0  0  0  0  0  0  0  0  0  0  0  0
   -2.5000    1.6125    0.0000 O   0  5  0  0  0  0  0  0  0  0  0  0
   -0.2125   -0.8542    0.0000 C   0  0  0  0  0  0  0  0  0  0  0  0
   -1.3458   -0.3042    0.0000 C   0  0  0  0  0  0  0  0  0  0  0  0
   -3.6208    2.2125    0.0000 O   0  0  0  0  0  0  0  0  0  0  0  0
   -5.4708    0.2958    0.0000 C   0  0  0  0  0  0  0  0  0  0  0  0
   -1.0500    0.3458    0.0000 C   0  0  0  0  0  0  0  0  0  0  0  0
    0.1042   -0.1875    0.0000 C   0  0  0  0  0  0  0  0  0  0  0  0
   -3.2458   -0.9792    0.0000 C   0  0  0  0  0  0  0  0  0  0  0  0
   -0.2958    0.4125    0.0000 C   0  0  0  0  0  0  0  0  0  0  0  0
   -1.2500   -1.5875    0.0000 O   0  0  0  0  0  0  0  0  0  0  0  0
    0.8375   -0.1167    0.0000 O   0  0  0  0  0  0  0  0  0  0  0  0
   -1.9708   -1.6375    0.0000 C   0  0  0  0  0  0  0  0  0  0  0  0
    1.1375    0.5458    0.0000 C   0  0  0  0  0  0  0  0  0  0  0  0
  2  3  1  0  0  0  0
  3  1  1  0  0  0  0
  4  6  1  0  0  0  0
  5  1  2  0  0  0  0
  6  5  1  0  0  0  0
  7  1  1  0  0  0  0
  8  5  1  0  0  0  0
  9  8  2  0  0  0  0
 10  4  2  0  0  0  0
 11  3  2  0  0  0  0
 12 15  2  0  0  0  0
 13  7  1  0  0  0  0
 14 12  1  0  0  0  0
 15  9  1  0  0  0  0
 16  7  2  0  0  0  0
 17  2  1  0  0  0  0
 18 15  1  0  0  0  0
 19 21  1  0  0  0  0
 20  6  1  0  0  0  0
 21 18  2  0  0  0  0
 22 12  1  0  0  0  0
 23 19  1  0  0  0  0
 24 22  1  0  0  0  0
 25 23  1  0  0  0  0
  4  2  1  0  0  0  0
 19 14  2  0  0  0  0
M  CHG  2   7   1  13  -1
M  END
>  <ID> (6599452)
6599452

>  <Supplier> (6599452)
ChemBridge

>  <clogP> (6599452)
2.210000000000000e+000

>  <RB> (6599452)
2

>  <tPSA> (6599452)
1.056000000000000e+002

>  <Hacc> (6599452)
6

>  <Hdon> (6599452)
0

>  <LogSw> (6599452)
-4.010000000000000e+000

>  <Group> (6599452)
3

>  <Core> (6599452)
222

$$$$
9026193
  -ISIS-  03310818282D

 22 23  0  0  0  0  0  0  0  0999 V2000
    4.2292    2.6833    0.0000 S   0  0  3  0  0  0  0  0  0  0  0  0
    4.8792    2.3083    0.0000 C   0  0  0  0  0  0  0  0  0  0  0  0
    4.8792    1.5583    0.0000 C   0  0  0  0  0  0  0  0  0  0  0  0
    4.6542    3.3000    0.0000 O   0  0  0  0  0  0  0  0  0  0  0  0
    3.6542    3.1708    0.0000 O   0  0  0  0  0  0  0  0  0  0  0  0
    5.5292    2.6833    0.0000 C   0  0  0  0  0  0  0  0  0  0  0  0
    3.7000    2.1583    0.0000 N   0  0  0  0  0  0  0  0  0  0  0  0
    1.7167    2.0208    0.0000 N   0  0  3  0  0  0  0  0  0  0  0  0
    0.2667    2.4000    0.0000 O   0  0  0  0  0  0  0  0  0  0  0  0
    2.9750    2.3500    0.0000 C   0  0  0  0  0  0  0  0  0  0  0  0
    6.1750    2.3083    0.0000 C   0  0  0  0  0  0  0  0  0  0  0  0
    5.5292    1.1833    0.0000 C   0  0  0  0  0  0  0  0  0  0  0  0
    6.1750    1.5583    0.0000 C   0  0  0  0  0  0  0  0  0  0  0  0
    5.5292    0.4333    0.0000 Cl  0  0  0  0  0  0  0  0  0  0  0  0
    2.4417    1.8208    0.0000 C   0  0  0  0  0  0  0  0  0  0  0  0
    5.5292    3.4333    0.0000 O   0  0  0  0  0  0  0  0  0  0  0  0
    1.1875    1.4833    0.0000 C   0  0  0  0  0  0  0  0  0  0  0  0
    1.5250    2.7375    0.0000 C   0  0  0  0  0  0  0  0  0  0  0  0
    0.8000    2.9333    0.0000 C   0  0  0  0  0  0  0  0  0  0  0  0
    0.4625    1.6750    0.0000 C   0  0  0  0  0  0  0  0  0  0  0  0
    6.1750    3.8083    0.0000 C   0  0  0  0  0  0  0  0  0  0  0  0
    6.1750    4.5542    0.0000 C   0  0  0  0  0  0  0  0  0  0  0  0
  2  1  1  0  0  0  0
  3  2  1  0  0  0  0
  4  1  2  0  0  0  0
  5  1  2  0  0  0  0
  6  2  2  0  0  0  0
  7  1  1  0  0  0  0
  8 15  1  0  0  0  0
  9 19  1  0  0  0  0
 10  7  1  0  0  0  0
 11  6  1  0  0  0  0
 12  3  2  0  0  0  0
 13 11  2  0  0  0  0
 14 12  1  0  0  0  0
 15 10  1  0  0  0  0
 16  6  1  0  0  0  0
 17  8  1  0  0  0  0
 18  8  1  0  0  0  0
 19 18  1  0  0  0  0
 20 17  1  0  0  0  0
 21 16  1  0  0  0  0
 22 21  1  0  0  0  0
 12 13  1  0  0  0  0
 20  9  1  0  0  0  0
M  END
>  <ID> (9026193)
9026193

>  <Supplier> (9026193)
ChemBridge

>  <clogP> (9026193)
2.540000000000000e+000

>  <RB> (9026193)
4

>  <tPSA> (9026193)
6.787000000000001e+001

>  <Hacc> (9026193)
6

>  <Hdon> (9026193)
1

>  <LogSw> (9026193)
-2.905000000000000e+000

>  <Group> (9026193)
3

$$$$
6599456
  -ISIS-  03310818242D

 18 18  0  0  0  0  0  0  0  0999 V2000
    4.9125    1.2250    0.0000 C   0  0  0  0  0  0  0  0  0  0  0  0
    4.2125    2.4458    0.0000 N   0  0  0  0  0  0  0  0  0  0  0  0
    2.8125    2.4458    0.0000 C   0  0  0  0  0  0  0  0  0  0  0  0
    6.3125    1.2250    0.0000 N   0  0  0  0  0  0  0  0  0  0  0  0
    7.7125    1.2250    0.0000 C   0  0  0  0  0  0  0  0  0  0  0  0
    8.4167    2.4333    0.0000 C   0  0  0  0  0  0  0  0  0  0  0  0
    9.8292    2.4333    0.0000 C   0  0  0  0  0  0  0  0  0  0  0  0
    4.2125    0.0208    0.0000 S   0  0  0  0  0  0  0  0  0  0  0  0
    2.1125    1.2250    0.0000 O   0  0  0  0  0  0  0  0  0  0  0  0
    8.4000    0.0208    0.0000 C   0  0  0  0  0  0  0  0  0  0  0  0
   10.5167    1.2083    0.0000 C   0  0  0  0  0  0  0  0  0  0  0  0
    2.1125    3.6500    0.0000 C   0  0  0  0  0  0  0  0  0  0  0  0
    7.7292    3.6500    0.0000 Cl  0  0  0  0  0  0  0  0  0  0  0  0
    9.8167    0.0000    0.0000 C   0  0  0  0  0  0  0  0  0  0  0  0
   11.9167    1.2083    0.0000 I   0  0  0  0  0  0  0  0  0  0  0  0
    0.7000    3.6708    0.0000 C   0  0  3  0  0  0  0  0  0  0  0  0
    0.0125    4.8542    0.0000 C   0  0  0  0  0  0  0  0  0  0  0  0
    0.0000    2.4583    0.0000 C   0  0  0  0  0  0  0  0  0  0  0  0
  2  1  1  0  0  0  0
  3  2  1  0  0  0  0
  4  1  1  0  0  0  0
  5  4  1  0  0  0  0
  6  5  1  0  0  0  0
  7  6  2  0  0  0  0
  8  1  2  0  0  0  0
  9  3  2  0  0  0  0
 10  5  2  0  0  0  0
 11 14  2  0  0  0  0
 12  3  1  0  0  0  0
 13  6  1  0  0  0  0
 14 10  1  0  0  0  0
 15 11  1  0  0  0  0
 16 12  1  0  0  0  0
 17 16  1  0  0  0  0
 18 16  1  0  0  0  0
  7 11  1  0  0  0  0
M  END
>  <ID> (6599456)
6599456

>  <Supplier> (6599456)
ChemBridge

>  <clogP> (6599456)
5.790000000000000e+000

>  <RB> (6599456)
2

>  <tPSA> (6599456)
4.113000000000000e+001

>  <Hacc> (6599456)
1

>  <Hdon> (6599456)
2

>  <LogSw> (6599456)
-7.036000000000001e+000

>  <Group> (6599456)
2

>  <Core> (6599456)
071

$$$$
5340569
  -ISIS-  03310818222D

 20 21  0  0  0  0  0  0  0  0999 V2000
   -1.6208    0.3500    0.0000 C   0  0  0  0  0  0  0  0  0  0  0  0
   -2.4000    0.3500    0.0000 N   0  0  0  0  0  0  0  0  0  0  0  0
   -1.2458    1.0208    0.0000 N   0  0  0  0  0  0  0  0  0  0  0  0
   -2.7958    1.0125    0.0000 C   0  0  0  0  0  0  0  0  0  0  0  0
   -2.4333    1.7000    0.0000 C   0  0  0  0  0  0  0  0  0  0  0  0
   -1.2208   -0.3042    0.0000 N   0  0  0  0  0  0  0  0  0  0  0  0
   -1.6458    1.6958    0.0000 C   0  0  0  0  0  0  0  0  0  0  0  0
   -0.4958   -0.3000    0.0000 C   0  0  0  0  0  0  0  0  0  0  0  0
   -3.5833    1.0125    0.0000 O   0  0  0  0  0  0  0  0  0  0  0  0
    1.0875   -0.3000    0.0000 C   0  0  0  0  0  0  0  0  0  0  0  0
   -0.1000   -0.9667    0.0000 C   0  0  0  0  0  0  0  0  0  0  0  0
   -0.0833    0.3500    0.0000 C   0  0  0  0  0  0  0  0  0  0  0  0
    0.6875   -0.9667    0.0000 C   0  0  0  0  0  0  0  0  0  0  0  0
    0.7000    0.3500    0.0000 C   0  0  0  0  0  0  0  0  0  0  0  0
    1.8792   -0.3042    0.0000 O   0  0  0  0  0  0  0  0  0  0  0  0
   -1.2708    2.3708    0.0000 C   0  0  0  0  0  0  0  0  0  0  0  0
    2.2667    0.3500    0.0000 C   0  0  0  0  0  0  0  0  0  0  0  0
    3.0375    0.3500    0.0000 C   0  0  0  0  0  0  0  0  0  0  0  0
    3.4042   -0.3375    0.0000 C   0  0  0  0  0  0  0  0  0  0  0  0
    4.2042   -0.3667    0.0000 C   0  0  0  0  0  0  0  0  0  0  0  0
  2  1  1  0  0  0  0
  3  1  2  0  0  0  0
  4  2  2  0  0  0  0
  5  7  2  0  0  0  0
  6  1  1  0  0  0  0
  7  3  1  0  0  0  0
  8  6  1  0  0  0  0
  9  4  1  0  0  0  0
 10 14  1  0  0  0  0
 11  8  2  0  0  0  0
 12  8  1  0  0  0  0
 13 11  1  0  0  0  0
 14 12  2  0  0  0  0
 15 10  1  0  0  0  0
 16  7  1  0  0  0  0
 17 15  1  0  0  0  0
 18 17  1  0  0  0  0
 19 18  1  0  0  0  0
 20 19  1  0  0  0  0
  5  4  1  0  0  0  0
 13 10  2  0  0  0  0
M  END
>  <ID> (5340569)
5340569

>  <Supplier> (5340569)
ChemBridge

>  <clogP> (5340569)
5.020000000000000e+000

>  <RB> (5340569)
4

>  <tPSA> (5340569)
6.727000000000000e+001

>  <Hacc> (5340569)
4

>  <Hdon> (5340569)
2

>  <LogSw> (5340569)
-5.481000000000002e+000

>  <Group> (5340569)
3

$$$$
5919809
  -ISIS-  03310818232D

 27 30  0  0  0  0  0  0  0  0999 V2000
    0.9375   -1.4167    0.0000 C   0  0  0  0  0  0  0  0  0  0  0  0
    1.4875   -0.3792    0.0000 C   0  0  0  0  0  0  0  0  0  0  0  0
   -0.2708    0.5708    0.0000 C   0  0  0  0  0  0  0  0  0  0  0  0
    1.7375   -2.2667    0.0000 N   0  0  0  0  0  0  0  0  0  0  0  0
    2.6500   -0.6042    0.0000 N   0  0  3  0  0  0  0  0  0  0  0  0
    0.8792    0.6000    0.0000 S   0  0  0  0  0  0  0  0  0  0  0  0
    0.0375   -1.9792    0.0000 N   0  3  0  0  0  0  0  0  0  0  0  0
    2.8000   -1.7667    0.0000 C   0  0  0  0  0  0  0  0  0  0  0  0
   -0.9625   -0.3792    0.0000 N   0  0  0  0  0  0  0  0  0  0  0  0
   -0.9625    1.4833    0.0000 N   0  0  3  0  0  0  0  0  0  0  0  0
   -2.0625    1.1333    0.0000 C   0  0  0  0  0  0  0  0  0  0  0  0
   -2.0625   -0.0292    0.0000 C   0  0  0  0  0  0  0  0  0  0  0  0
    3.4792    0.2000    0.0000 C   0  0  0  0  0  0  0  0  0  0  0  0
   -1.4000   -1.5167    0.0000 O   0  5  0  0  0  0  0  0  0  0  0  0
   -0.0500   -3.3792    0.0000 O   0  0  0  0  0  0  0  0  0  0  0  0
   -0.7500    2.3625    0.0000 C   0  0  0  0  0  0  0  0  0  0  0  0
    3.8542   -2.3000    0.0000 C   0  0  0  0  0  0  0  0  0  0  0  0
    3.2292    1.3000    0.0000 C   0  0  0  0  0  0  0  0  0  0  0  0
   -3.0708    1.7125    0.0000 C   0  0  0  0  0  0  0  0  0  0  0  0
   -3.0708   -0.6042    0.0000 C   0  0  0  0  0  0  0  0  0  0  0  0
    4.0542    2.1125    0.0000 C   0  0  0  0  0  0  0  0  0  0  0  0
    2.1167    1.6625    0.0000 C   0  0  0  0  0  0  0  0  0  0  0  0
   -4.0833    1.1333    0.0000 C   0  0  0  0  0  0  0  0  0  0  0  0
   -4.0833   -0.0292    0.0000 C   0  0  0  0  0  0  0  0  0  0  0  0
    3.8042    3.2208    0.0000 C   0  0  0  0  0  0  0  0  0  0  0  0
    1.8375    2.7958    0.0000 C   0  0  0  0  0  0  0  0  0  0  0  0
    2.7000    3.5708    0.0000 C   0  0  0  0  0  0  0  0  0  0  0  0
  2  1  2  0  0  0  0
  3  6  1  0  0  0  0
  4  1  1  0  0  0  0
  5  2  1  0  0  0  0
  6  2  1  0  0  0  0
  7  1  1  0  0  0  0
  8  4  2  0  0  0  0
  9  3  2  0  0  0  0
 10  3  1  0  0  0  0
 11 10  1  0  0  0  0
 12  9  1  0  0  0  0
 13  5  1  0  0  0  0
 14  7  1  0  0  0  0
 15  7  2  0  0  0  0
 16 10  1  0  0  0  0
 17  8  1  0  0  0  0
 18 13  1  0  0  0  0
 19 11  1  0  0  0  0
 20 12  1  0  0  0  0
 21 18  2  0  0  0  0
 22 18  1  0  0  0  0
 23 19  2  0  0  0  0
 24 20  2  0  0  0  0
 25 21  1  0  0  0  0
 26 22  2  0  0  0  0
 27 26  1  0  0  0  0
  5  8  1  0  0  0  0
 12 11  2  0  0  0  0
 23 24  1  0  0  0  0
 27 25  2  0  0  0  0
M  CHG  2   7   1  14  -1
M  END
>  <ID> (5919809)
5919809

>  <Supplier> (5919809)
ChemBridge

>  <clogP> (5919809)
3.870000000000000e+000

>  <RB> (5919809)
4

>  <tPSA> (5919809)
7.878000000000000e+001

>  <Hacc> (5919809)
6

>  <Hdon> (5919809)
0

>  <LogSw> (5919809)
-5.661000000000000e+000

>  <Group> (5919809)
1

>  <Core> (5919809)
031

$$$$
5919808
  -ISIS-  03310818232D

 21 22  0  0  0  0  0  0  0  0999 V2000
    1.5375   -0.2542    0.0000 S   0  0  0  0  0  0  0  0  0  0  0  0
    1.2000   -0.8542    0.0000 C   0  0  0  0  0  0  0  0  0  0  0  0
    0.4792   -0.0292    0.0000 N   0  0  0  0  0  0  0  0  0  0  0  0
    1.0792    0.2625    0.0000 C   0  0  0  0  0  0  0  0  0  0  0  0
    0.5375   -0.7000    0.0000 N   0  0  0  0  0  0  0  0  0  0  0  0
   -0.5208   -1.4542    0.0000 C   0  0  0  0  0  0  0  0  0  0  0  0
    1.5375   -1.4542    0.0000 N   0  0  0  0  0  0  0  0  0  0  0  0
   -0.8625   -0.8542    0.0000 N   0  0  0  0  0  0  0  0  0  0  0  0
   -0.8625   -2.0375    0.0000 N   0  0  0  0  0  0  0  0  0  0  0  0
    1.2000   -2.0375    0.0000 C   0  0  0  0  0  0  0  0  0  0  0  0
    0.1792   -1.4542    0.0000 S   0  0  0  0  0  0  0  0  0  0  0  0
   -1.5458   -2.0375    0.0000 C   0  0  0  0  0  0  0  0  0  0  0  0
   -1.5458   -0.8375    0.0000 C   0  0  0  0  0  0  0  0  0  0  0  0
   -1.8833   -1.4542    0.0000 C   0  0  0  0  0  0  0  0  0  0  0  0
    1.5375   -2.6375    0.0000 O   0  0  0  0  0  0  0  0  0  0  0  0
    1.2000    0.9458    0.0000 C   0  0  3  0  0  0  0  0  0  0  0  0
    0.5167   -2.0375    0.0000 C   0  0  0  0  0  0  0  0  0  0  0  0
   -1.8625   -0.2375    0.0000 C   0  0  0  0  0  0  0  0  0  0  0  0
   -1.8833   -2.6375    0.0000 C   0  0  0  0  0  0  0  0  0  0  0  0
    0.6542    1.3833    0.0000 C   0  0  0  0  0  0  0  0  0  0  0  0
    1.8292    1.1625    0.0000 C   0  0  0  0  0  0  0  0  0  0  0  0
  2  1  1  0  0  0  0
  3  4  2  0  0  0  0
  4  1  1  0  0  0  0
  5  2  2  0  0  0  0
  6 11  1  0  0  0  0
  7  2  1  0  0  0  0
  8  6  2  0  0  0  0
  9  6  1  0  0  0  0
 10  7  1  0  0  0  0
 11 17  1  0  0  0  0
 12  9  2  0  0  0  0
 13  8  1  0  0  0  0
 14 12  1  0  0  0  0
 15 10  2  0  0  0  0
 16  4  1  0  0  0  0
 17 10  1  0  0  0  0
 18 13  1  0  0  0  0
 19 12  1  0  0  0  0
 20 16  1  0  0  0  0
 21 16  1  0  0  0  0
  5  3  1  0  0  0  0
 14 13  2  0  0  0  0
M  END
>  <ID> (5919808)
5919808

>  <Supplier> (5919808)
ChemBridge

>  <clogP> (5919808)
1.910000000000000e+000

>  <RB> (5919808)
4

>  <tPSA> (5919808)
8.066000000000003e+001

>  <Hacc> (5919808)
5

>  <Hdon> (5919808)
1

>  <LogSw> (5919808)
-3.190000000000000e+000

>  <Group> (5919808)
1

>  <Core> (5919808)
246

$$$$
5882147
  -ISIS-  03310818232D

 28 30  0  0  0  0  0  0  0  0999 V2000
    0.1500   -0.0042    0.0000 N   0  0  3  0  0  0  0  0  0  0  0  0
   -0.1708   -0.7000    0.0000 C   0  0  0  0  0  0  0  0  0  0  0  0
   -0.4500    0.5208    0.0000 C   0  0  0  0  0  0  0  0  0  0  0  0
   -0.9458   -0.6292    0.0000 S   0  0  0  0  0  0  0  0  0  0  0  0
   -1.1333    0.1000    0.0000 C   0  0  0  0  0  0  0  0  0  0  0  0
    0.9000    0.2625    0.0000 C   0  0  0  0  0  0  0  0  0  0  0  0
    0.2500   -1.4000    0.0000 S   0  0  0  0  0  0  0  0  0  0  0  0
   -1.8708    0.4208    0.0000 C   0  0  0  0  0  0  0  0  0  0  0  0
    3.6000   -0.2000    0.0000 C   0  0  0  0  0  0  0  0  0  0  0  0
   -0.3833    1.3125    0.0000 O   0  0  0  0  0  0  0  0  0  0  0  0
   -2.5208   -0.0792    0.0000 C   0  0  0  0  0  0  0  0  0  0  0  0
    3.7500    0.5958    0.0000 C   0  0  0  0  0  0  0  0  0  0  0  0
    2.8542   -0.4667    0.0000 C   0  0  0  0  0  0  0  0  0  0  0  0
   -3.2625    0.2125    0.0000 C   0  0  0  0  0  0  0  0  0  0  0  0
    3.1500    1.1000    0.0000 C   0  0  0  0  0  0  0  0  0  0  0  0
    2.2542    0.0333    0.0000 C   0  0  0  0  0  0  0  0  0  0  0  0
    1.5000   -0.2500    0.0000 C   0  0  0  0  0  0  0  0  0  0  0  0
    2.4000    0.8208    0.0000 C   0  0  0  0  0  0  0  0  0  0  0  0
    4.2292   -0.6792    0.0000 O   0  0  0  0  0  0  0  0  0  0  0  0
   -3.8958   -0.2542    0.0000 C   0  0  0  0  0  0  0  0  0  0  0  0
    4.5042    0.8708    0.0000 O   0  0  0  0  0  0  0  0  0  0  0  0
    4.1042   -1.4667    0.0000 C   0  0  0  0  0  0  0  0  0  0  0  0
   -4.6125    0.0500    0.0000 C   0  0  0  0  0  0  0  0  0  0  0  0
   -3.7708   -1.0292    0.0000 C   0  0  0  0  0  0  0  0  0  0  0  0
    4.6500    1.6625    0.0000 C   0  0  0  0  0  0  0  0  0  0  0  0
   -4.4208   -1.5167    0.0000 C   0  0  0  0  0  0  0  0  0  0  0  0
   -5.2708   -0.4292    0.0000 C   0  0  0  0  0  0  0  0  0  0  0  0
   -5.1458   -1.2000    0.0000 C   0  0  0  0  0  0  0  0  0  0  0  0
  2  1  1  0  0  0  0
  3  1  1  0  0  0  0
  4  2  1  0  0  0  0
  5  3  1  0  0  0  0
  6  1  1  0  0  0  0
  7  2  2  0  0  0  0
  8  5  2  0  0  0  0
  9 13  1  0  0  0  0
 10  3  2  0  0  0  0
 11  8  1  0  0  0  0
 12 15  1  0  0  0  0
 13 16  2  0  0  0  0
 14 11  2  0  0  0  0
 15 18  2  0  0  0  0
 16 17  1  0  0  0  0
 17  6  1  0  0  0  0
 18 16  1  0  0  0  0
 19  9  1  0  0  0  0
 20 14  1  0  0  0  0
 21 12  1  0  0  0  0
 22 19  1  0  0  0  0
 23 20  2  0  0  0  0
 24 20  1  0  0  0  0
 25 21  1  0  0  0  0
 26 24  2  0  0  0  0
 27 23  1  0  0  0  0
 28 26  1  0  0  0  0
  5  4  1  0  0  0  0
  9 12  2  0  0  0  0
 28 27  2  0  0  0  0
M  END
>  <ID> (5882147)
5882147

>  <Supplier> (5882147)
ChemBridge

>  <clogP> (5882147)
4.490000000000000e+000

>  <RB> (5882147)
5

>  <tPSA> (5882147)
3.877000000000000e+001

>  <Hacc> (5882147)
3

>  <Hdon> (5882147)
0

>  <LogSw> (5882147)
-6.034000000000000e+000

>  <Group> (5882147)
3

>  <Core> (5882147)
001

$$$$
5340567
  -ISIS-  03310818222D

 14 15  0  0  0  0  0  0  0  0999 V2000
   -1.7958    1.8625    0.0000 C   0  0  0  0  0  0  0  0  0  0  0  0
   -2.5000    1.4500    0.0000 N   0  0  0  0  0  0  0  0  0  0  0  0
   -1.7958    2.6833    0.0000 N   0  0  0  0  0  0  0  0  0  0  0  0
   -1.0833    1.4500    0.0000 N   0  0  3  0  0  0  0  0  0  0  0  0
   -3.2000    1.8625    0.0000 C   0  0  0  0  0  0  0  0  0  0  0  0
   -3.2000    2.6833    0.0000 C   0  0  0  0  0  0  0  0  0  0  0  0
   -2.5000    3.0958    0.0000 C   0  0  0  0  0  0  0  0  0  0  0  0
    0.0792    0.3208    0.0000 O   0  0  0  0  0  0  0  0  0  0  0  0
   -3.9333    1.4458    0.0000 O   0  0  0  0  0  0  0  0  0  0  0  0
   -0.3000    1.6708    0.0000 C   0  0  0  0  0  0  0  0  0  0  0  0
   -1.2833    0.6625    0.0000 C   0  0  0  0  0  0  0  0  0  0  0  0
    0.2792    1.1000    0.0000 C   0  0  0  0  0  0  0  0  0  0  0  0
   -0.7000    0.1000    0.0000 C   0  0  0  0  0  0  0  0  0  0  0  0
   -2.5208    3.9208    0.0000 C   0  0  0  0  0  0  0  0  0  0  0  0
  2  1  2  0  0  0  0
  3  1  1  0  0  0  0
  4  1  1  0  0  0  0
  5  2  1  0  0  0  0
  6  7  1  0  0  0  0
  7  3  2  0  0  0  0
  8 13  1  0  0  0  0
  9  5  1  0  0  0  0
 10  4  1  0  0  0  0
 11  4  1  0  0  0  0
 12 10  1  0  0  0  0
 13 11  1  0  0  0  0
 14  7  1  0  0  0  0
  8 12  1  0  0  0  0
  6  5  2  0  0  0  0
M  END
>  <ID> (5340567)
5340567

>  <Supplier> (5340567)
ChemBridge

>  <clogP> (5340567)
1.690000000000000e+000

>  <RB> (5340567)
1

>  <tPSA> (5340567)
5.848000000000000e+001

>  <Hacc> (5340567)
4

>  <Hdon> (5340567)
1

>  <LogSw> (5340567)
-2.068000000000000e+000

>  <Group> (5340567)
1

$$$$
5340560
  -ISIS-  03310818222D

 31 34  0  0  0  0  0  0  0  0999 V2000
   -3.7958    1.1625    0.0000 C   0  0  0  0  0  0  0  0  0  0  0  0
   -3.1125    1.5500    0.0000 N   0  0  0  0  0  0  0  0  0  0  0  0
   -3.7958    0.3708    0.0000 C   0  0  0  0  0  0  0  0  0  0  0  0
   -3.1125   -0.0167    0.0000 N   0  0  0  0  0  0  0  0  0  0  0  0
   -2.4333    0.3708    0.0000 C   0  0  0  0  0  0  0  0  0  0  0  0
   -2.4333    1.1625    0.0000 N   0  0  0  0  0  0  0  0  0  0  0  0
   -1.7500   -0.0292    0.0000 N   0  0  0  0  0  0  0  0  0  0  0  0
   -4.4708    1.5500    0.0000 C   0  0  0  0  0  0  0  0  0  0  0  0
   -4.4708   -0.0167    0.0000 C   0  0  0  0  0  0  0  0  0  0  0  0
   -1.0708    0.3500    0.0000 C   0  0  0  0  0  0  0  0  0  0  0  0
    0.3042    1.1208    0.0000 C   0  0  0  0  0  0  0  0  0  0  0  0
   -1.0625    1.1333    0.0000 C   0  0  0  0  0  0  0  0  0  0  0  0
   -0.4125   -0.0500    0.0000 C   0  0  0  0  0  0  0  0  0  0  0  0
    0.2792    0.3333    0.0000 C   0  0  0  0  0  0  0  0  0  0  0  0
   -0.3833    1.5208    0.0000 C   0  0  0  0  0  0  0  0  0  0  0  0
   -4.4708    2.3458    0.0000 C   0  0  0  0  0  0  0  0  0  0  0  0
   -5.1583    1.1625    0.0000 C   0  0  0  0  0  0  0  0  0  0  0  0
   -4.4708   -0.8042    0.0000 C   0  0  0  0  0  0  0  0  0  0  0  0
   -5.1583    0.3708    0.0000 C   0  0  0  0  0  0  0  0  0  0  0  0
    1.0167    1.4958    0.0000 C   0  0  0  0  0  0  0  0  0  0  0  0
    1.6875    1.0625    0.0000 C   0  0  0  0  0  0  0  0  0  0  0  0
    3.7500    1.3833    0.0000 C   0  0  0  0  0  0  0  0  0  0  0  0
    3.0542    1.0125    0.0000 C   0  0  0  0  0  0  0  0  0  0  0  0
    2.3792    1.4333    0.0000 C   0  0  0  0  0  0  0  0  0  0  0  0
    4.4167    0.9625    0.0000 C   0  0  0  0  0  0  0  0  0  0  0  0
   -5.8333    1.5500    0.0000 C   0  0  0  0  0  0  0  0  0  0  0  0
   -5.1583    2.7333    0.0000 C   0  0  0  0  0  0  0  0  0  0  0  0
   -5.1583   -1.2000    0.0000 C   0  0  0  0  0  0  0  0  0  0  0  0
   -5.8333   -0.0167    0.0000 C   0  0  0  0  0  0  0  0  0  0  0  0
   -5.8333   -0.8042    0.0000 C   0  0  0  0  0  0  0  0  0  0  0  0
   -5.8333    2.3458    0.0000 C   0  0  0  0  0  0  0  0  0  0  0  0
  2  1  1  0  0  0  0
  3  1  2  0  0  0  0
  4  3  1  0  0  0  0
  5  4  2  0  0  0  0
  6  2  2  0  0  0  0
  7  5  1  0  0  0  0
  8  1  1  0  0  0  0
  9  3  1  0  0  0  0
 10  7  1  0  0  0  0
 11 14  1  0  0  0  0
 12 10  2  0  0  0  0
 13 10  1  0  0  0  0
 14 13  2  0  0  0  0
 15 12  1  0  0  0  0
 16  8  2  0  0  0  0
 17  8  1  0  0  0  0
 18  9  1  0  0  0  0
 19  9  2  0  0  0  0
 20 11  1  0  0  0  0
 21 20  1  0  0  0  0
 22 23  1  0  0  0  0
 23 24  1  0  0  0  0
 24 21  1  0  0  0  0
 25 22  1  0  0  0  0
 26 17  2  0  0  0  0
 27 16  1  0  0  0  0
 28 18  2  0  0  0  0
 29 19  1  0  0  0  0
 30 29  2  0  0  0  0
 31 26  1  0  0  0  0
  6  5  1  0  0  0  0
 31 27  2  0  0  0  0
 30 28  1  0  0  0  0
 11 15  2  0  0  0  0
M  END
>  <ID> (5340560)
5340560

>  <Supplier> (5340560)
ChemBridge

>  <clogP> (5340560)
9.030000000000001e+000

>  <RB> (5340560)
7

>  <tPSA> (5340560)
5.070000000000000e+001

>  <Hacc> (5340560)
3

>  <Hdon> (5340560)
1

>  <LogSw> (5340560)
-9.890000000000002e+000

>  <Group> (5340560)
1

$$$$
5340562
  -ISIS-  03310818222D

 15 16  0  0  0  0  0  0  0  0999 V2000
   -3.2000    0.0458    0.0000 C   0  0  0  0  0  0  0  0  0  0  0  0
   -3.9583   -0.3792    0.0000 N   0  0  0  0  0  0  0  0  0  0  0  0
   -3.1958    0.8958    0.0000 N   0  0  0  0  0  0  0  0  0  0  0  0
   -4.6958    0.0500    0.0000 C   0  0  0  0  0  0  0  0  0  0  0  0
   -4.6833    0.9125    0.0000 C   0  0  0  0  0  0  0  0  0  0  0  0
   -2.4500   -0.3875    0.0000 N   0  0  0  0  0  0  0  0  0  0  0  0
   -3.9458    1.3458    0.0000 C   0  0  0  0  0  0  0  0  0  0  0  0
   -5.4708   -0.3792    0.0000 O   0  0  0  0  0  0  0  0  0  0  0  0
   -1.7125    0.0458    0.0000 C   0  0  0  0  0  0  0  0  0  0  0  0
   -3.9458    2.2083    0.0000 C   0  0  0  0  0  0  0  0  0  0  0  0
   -1.7208    0.8958    0.0000 C   0  0  0  0  0  0  0  0  0  0  0  0
   -0.9625   -0.3792    0.0000 C   0  0  0  0  0  0  0  0  0  0  0  0
   -0.9833    1.3208    0.0000 C   0  0  0  0  0  0  0  0  0  0  0  0
   -0.2333    0.0500    0.0000 C   0  0  0  0  0  0  0  0  0  0  0  0
   -0.2458    0.9125    0.0000 C   0  0  0  0  0  0  0  0  0  0  0  0
  2  1  2  0  0  0  0
  3  1  1  0  0  0  0
  4  2  1  0  0  0  0
  5  7  1  0  0  0  0
  6  1  1  0  0  0  0
  7  3  2  0  0  0  0
  8  4  1  0  0  0  0
  9  6  1  0  0  0  0
 10  7  1  0  0  0  0
 11  9  1  0  0  0  0
 12  9  2  0  0  0  0
 13 11  2  0  0  0  0
 14 12  1  0  0  0  0
 15 14  2  0  0  0  0
  4  5  2  0  0  0  0
 13 15  1  0  0  0  0
M  END
>  <ID> (5340562)
5340562

>  <Supplier> (5340562)
ChemBridge

>  <clogP> (5340562)
3.600000000000000e+000

>  <RB> (5340562)
2

>  <tPSA> (5340562)
5.803999999999999e+001

>  <Hacc> (5340562)
3

>  <Hdon> (5340562)
2

>  <LogSw> (5340562)
-3.743000000000000e+000

>  <Group> (5340562)
3

$$$$
5340563
  -ISIS-  03310818222D

 16 17  0  0  0  0  0  0  0  0999 V2000
   -4.0000   -0.3667    0.0000 N   0  0  0  0  0  0  0  0  0  0  0  0
   -3.2500    0.0500    0.0000 C   0  0  0  0  0  0  0  0  0  0  0  0
   -4.7458    0.0625    0.0000 C   0  0  0  0  0  0  0  0  0  0  0  0
   -3.2500    0.9333    0.0000 N   0  0  0  0  0  0  0  0  0  0  0  0
   -4.7458    0.9208    0.0000 C   0  0  0  0  0  0  0  0  0  0  0  0
   -2.4958   -0.4042    0.0000 N   0  0  0  0  0  0  0  0  0  0  0  0
   -4.0000    1.3500    0.0000 C   0  0  0  0  0  0  0  0  0  0  0  0
   -5.4958   -0.3875    0.0000 O   0  0  0  0  0  0  0  0  0  0  0  0
   -1.7458    0.0125    0.0000 C   0  0  0  0  0  0  0  0  0  0  0  0
   -1.0125   -0.4167    0.0000 C   0  0  0  0  0  0  0  0  0  0  0  0
   -4.0000    2.2125    0.0000 C   0  0  0  0  0  0  0  0  0  0  0  0
   -0.2708    0.0125    0.0000 C   0  0  0  0  0  0  0  0  0  0  0  0
   -1.0208   -1.2792    0.0000 C   0  0  0  0  0  0  0  0  0  0  0  0
    0.4792   -0.4042    0.0000 C   0  0  0  0  0  0  0  0  0  0  0  0
   -0.2833   -1.7042    0.0000 C   0  0  0  0  0  0  0  0  0  0  0  0
    0.4667   -1.2875    0.0000 C   0  0  0  0  0  0  0  0  0  0  0  0
  2  1  2  0  0  0  0
  3  1  1  0  0  0  0
  4  2  1  0  0  0  0
  5  3  2  0  0  0  0
  6  2  1  0  0  0  0
  7  5  1  0  0  0  0
  8  3  1  0  0  0  0
  9  6  1  0  0  0  0
 10  9  1  0  0  0  0
 11  7  1  0  0  0  0
 12 10  1  0  0  0  0
 13 10  2  0  0  0  0
 14 12  2  0  0  0  0
 15 13  1  0  0  0  0
 16 15  2  0  0  0  0
  4  7  2  0  0  0  0
 16 14  1  0  0  0  0
M  END
>  <ID> (5340563)
5340563

>  <Supplier> (5340563)
ChemBridge

>  <clogP> (5340563)
2.970000000000000e+000

>  <RB> (5340563)
3

>  <tPSA> (5340563)
5.803999999999999e+001

>  <Hacc> (5340563)
3

>  <Hdon> (5340563)
2

>  <LogSw> (5340563)
-3.307000000000000e+000

>  <Group> (5340563)
1

$$$$
5466320
  -ISIS-  03310818222D

 20 21  0  0  0  0  0  0  0  0999 V2000
   -2.6333    0.8000    0.0000 C   0  0  0  0  0  0  0  0  0  0  0  0
   -1.0500    0.8125    0.0000 C   0  0  0  0  0  0  0  0  0  0  0  0
   -1.8333    0.3708    0.0000 C   0  0  3  0  0  0  0  0  0  0  0  0
   -0.1958    0.5333    0.0000 O   0  0  0  0  0  0  0  0  0  0  0  0
   -3.5000    0.5333    0.0000 O   0  0  0  0  0  0  0  0  0  0  0  0
   -1.8333   -0.5500    0.0000 C   0  0  3  0  0  0  0  0  0  0  0  0
   -1.0500    1.7333    0.0000 C   0  0  0  0  0  0  0  0  0  0  0  0
   -2.6333    1.7208    0.0000 C   0  0  0  0  0  0  0  0  0  0  0  0
   -4.0208    1.2708    0.0000 C   0  0  0  0  0  0  0  0  0  0  0  0
    0.3292    1.2708    0.0000 C   0  0  0  0  0  0  0  0  0  0  0  0
   -0.1958    2.0208    0.0000 C   0  0  0  0  0  0  0  0  0  0  0  0
   -3.4708    1.9958    0.0000 C   0  0  0  0  0  0  0  0  0  0  0  0
   -1.0500   -1.0042    0.0000 C   0  0  0  0  0  0  0  0  0  0  0  0
   -2.6125   -1.0042    0.0000 C   0  0  0  0  0  0  0  0  0  0  0  0
   -2.6125   -1.9042    0.0000 O   0  0  0  0  0  0  0  0  0  0  0  0
   -1.0500   -1.9042    0.0000 O   0  0  0  0  0  0  0  0  0  0  0  0
    1.2375    1.2708    0.0000 C   0  0  0  0  0  0  0  0  0  0  0  0
   -4.9333    1.2708    0.0000 C   0  0  0  0  0  0  0  0  0  0  0  0
   -0.2708   -0.5667    0.0000 C   0  0  0  0  0  0  0  0  0  0  0  0
   -3.3958   -0.5667    0.0000 C   0  0  0  0  0  0  0  0  0  0  0  0
  2  3  1  0  0  0  0
  3  1  1  0  0  0  0
  4  2  1  0  0  0  0
  5  1  1  0  0  0  0
  6  3  1  0  0  0  0
  7  2  2  0  0  0  0
  8  1  2  0  0  0  0
  9  5  1  0  0  0  0
 10  4  1  0  0  0  0
 11  7  1  0  0  0  0
 12  8  1  0  0  0  0
 13  6  1  0  0  0  0
 14  6  1  0  0  0  0
 15 14  2  0  0  0  0
 16 13  2  0  0  0  0
 17 10  1  0  0  0  0
 18  9  1  0  0  0  0
 19 13  1  0  0  0  0
 20 14  1  0  0  0  0
 12  9  2  0  0  0  0
 11 10  2  0  0  0  0
M  END
>  <ID> (5466320)
5466320

>  <Supplier> (5466320)
ChemBridge

>  <clogP> (5466320)
2.270000000000000e+000

>  <RB> (5466320)
5

>  <tPSA> (5466320)
6.042000000000000e+001

>  <Hacc> (5466320)
4

>  <Hdon> (5466320)
0

>  <LogSw> (5466320)
-3.140000000000000e+000

>  <Group> (5466320)
3

$$$$
9080814
  -ISIS-  03310818292D

 19 19  0  0  0  0  0  0  0  0999 V2000
    3.0292    1.8458    0.0000 S   0  0  3  0  0  0  0  0  0  0  0  0
    3.7792    1.8458    0.0000 C   0  0  0  0  0  0  0  0  0  0  0  0
    4.1542    1.1958    0.0000 C   0  0  0  0  0  0  0  0  0  0  0  0
    2.8417    2.5625    0.0000 N   0  0  0  0  0  0  0  0  0  0  0  0
    4.9042    1.1958    0.0000 C   0  0  0  0  0  0  0  0  0  0  0  0
    2.2917    1.7083    0.0000 O   0  0  0  0  0  0  0  0  0  0  0  0
    3.1000    1.0958    0.0000 O   0  0  0  0  0  0  0  0  0  0  0  0
    4.1542    2.4875    0.0000 C   0  0  0  0  0  0  0  0  0  0  0  0
    5.2792    1.8458    0.0000 C   0  0  0  0  0  0  0  0  0  0  0  0
    4.9042    2.4875    0.0000 C   0  0  0  0  0  0  0  0  0  0  0  0
    6.0292    1.8458    0.0000 O   0  0  0  0  0  0  0  0  0  0  0  0
    3.7792    0.5458    0.0000 C   0  0  0  0  0  0  0  0  0  0  0  0
    2.1167    2.7583    0.0000 C   0  0  3  0  0  0  0  0  0  0  0  0
    5.2792    0.5458    0.0000 C   0  0  0  0  0  0  0  0  0  0  0  0
    6.4042    2.4875    0.0000 C   0  0  0  0  0  0  0  0  0  0  0  0
    1.9167    3.4833    0.0000 C   0  0  0  0  0  0  0  0  0  0  0  0
    1.5875    2.2333    0.0000 C   0  0  0  0  0  0  0  0  0  0  0  0
    7.1542    2.4875    0.0000 C   0  0  0  0  0  0  0  0  0  0  0  0
    1.2000    3.6833    0.0000 C   0  0  0  0  0  0  0  0  0  0  0  0
  2  1  1  0  0  0  0
  3  2  1  0  0  0  0
  4  1  1  0  0  0  0
  5  3  2  0  0  0  0
  6  1  2  0  0  0  0
  7  1  2  0  0  0  0
  8  2  2  0  0  0  0
  9 10  2  0  0  0  0
 10  8  1  0  0  0  0
 11  9  1  0  0  0  0
 12  3  1  0  0  0  0
 13  4  1  0  0  0  0
 14  5  1  0  0  0  0
 15 11  1  0  0  0  0
 16 13  1  0  0  0  0
 17 13  1  0  0  0  0
 18 15  1  0  0  0  0
 19 16  1  0  0  0  0
  5  9  1  0  0  0  0
M  END
>  <ID> (9080814)
9080814

>  <Supplier> (9080814)
ChemBridge

>  <clogP> (9080814)
4.043000000000000e+000

>  <RB> (9080814)
2

>  <tPSA> (9080814)
5.540000000000000e+001

>  <Hacc> (9080814)
4

>  <Hdon> (9080814)
1

>  <LogSw> (9080814)
-4.734000000000000e+000

>  <Group> (9080814)
2

$$$$
5348772
  -ISIS-  03310818222D

 17 18  0  0  0  0  0  0  0  0999 V2000
   -1.7500    1.0000    0.0000 N   0  3  0  0  0  0  0  0  0  0  0  0
   -2.1125    0.3625    0.0000 N   0  5  0  0  0  0  0  0  0  0  0  0
   -2.8333    0.3625    0.0000 S   0  3  3  0  0  0  0  0  0  0  0  0
   -1.0125    1.0000    0.0000 O   0  5  0  0  0  0  0  0  0  0  0  0
   -2.1125    1.6458    0.0000 O   0  0  0  0  0  0  0  0  0  0  0  0
   -3.2000   -0.2667    0.0000 C   0  0  0  0  0  0  0  0  0  0  0  0
   -3.1833    0.9958    0.0000 C   0  0  0  0  0  0  0  0  0  0  0  0
   -2.8333   -0.9000    0.0000 C   0  0  0  0  0  0  0  0  0  0  0  0
   -3.9458   -0.2667    0.0000 C   0  0  0  0  0  0  0  0  0  0  0  0
   -2.8125    1.6208    0.0000 C   0  0  0  0  0  0  0  0  0  0  0  0
   -3.9125    0.9958    0.0000 C   0  0  0  0  0  0  0  0  0  0  0  0
   -4.3125   -0.9042    0.0000 C   0  0  0  0  0  0  0  0  0  0  0  0
   -3.1625    2.2708    0.0000 C   0  0  0  0  0  0  0  0  0  0  0  0
   -4.2708    1.6333    0.0000 C   0  0  0  0  0  0  0  0  0  0  0  0
   -3.2000   -1.5500    0.0000 C   0  0  0  0  0  0  0  0  0  0  0  0
   -3.9458   -1.5500    0.0000 C   0  0  0  0  0  0  0  0  0  0  0  0
   -3.8958    2.2708    0.0000 C   0  0  0  0  0  0  0  0  0  0  0  0
  2  1  1  0  0  0  0
  3  2  1  0  0  0  0
  4  1  1  0  0  0  0
  5  1  2  0  0  0  0
  6  3  1  0  0  0  0
  7  3  1  0  0  0  0
  8  6  1  0  0  0  0
  9  6  2  0  0  0  0
 10  7  2  0  0  0  0
 11  7  1  0  0  0  0
 12  9  1  0  0  0  0
 13 10  1  0  0  0  0
 14 11  2  0  0  0  0
 15  8  2  0  0  0  0
 16 12  2  0  0  0  0
 17 14  1  0  0  0  0
 13 17  2  0  0  0  0
 16 15  1  0  0  0  0
M  CHG  4   1   1   2  -1   3   1   4  -1
M  END
>  <ID> (5348772)
5348772

>  <Supplier> (5348772)
ChemBridge

>  <clogP> (5348772)
3.710000000000000e+000

>  <RB> (5348772)
3

>  <tPSA> (5348772)
5.724000000000000e+001

>  <Hacc> (5348772)
3

>  <Hdon> (5348772)
0

>  <LogSw> (5348772)
-4.180000000000000e+000

>  <Group> (5348772)
2

$$$$
6961746
  -ISIS-  03310818252D

 26 28  0  0  0  0  0  0  0  0999 V2000
   11.1000   -1.0167    0.0000 C   0  0  0  0  0  0  0  0  0  0  0  0
   10.4750   -1.3917    0.0000 C   0  0  3  0  0  0  0  0  0  0  0  0
   11.0625   -0.2000    0.0000 C   0  0  0  0  0  0  0  0  0  0  0  0
   11.9042   -1.4042    0.0000 C   0  0  0  0  0  0  0  0  0  0  0  0
   11.1792   -2.6375    0.0000 C   0  0  0  0  0  0  0  0  0  0  0  0
   11.9042   -2.2250    0.0000 N   0  0  0  0  0  0  0  0  0  0  0  0
   10.4667   -2.2167    0.0000 N   0  0  0  0  0  0  0  0  0  0  0  0
    9.7625   -0.9792    0.0000 C   0  0  0  0  0  0  0  0  0  0  0  0
   11.7542    0.2500    0.0000 N   0  0  0  0  0  0  0  0  0  0  0  0
   11.1750   -3.4667    0.0000 S   0  0  0  0  0  0  0  0  0  0  0  0
   10.3292    0.1833    0.0000 O   0  0  0  0  0  0  0  0  0  0  0  0
    9.0417   -1.3792    0.0000 C   0  0  0  0  0  0  0  0  0  0  0  0
   11.7500    1.0750    0.0000 C   0  0  0  0  0  0  0  0  0  0  0  0
   12.6042   -0.9625    0.0000 C   0  0  0  0  0  0  0  0  0  0  0  0
   11.7375    2.7333    0.0000 C   0  0  0  0  0  0  0  0  0  0  0  0
   12.4625    1.4958    0.0000 C   0  0  0  0  0  0  0  0  0  0  0  0
   11.0167    1.4833    0.0000 C   0  0  0  0  0  0  0  0  0  0  0  0
   12.4542    2.3208    0.0000 C   0  0  0  0  0  0  0  0  0  0  0  0
   11.0167    2.3125    0.0000 C   0  0  0  0  0  0  0  0  0  0  0  0
    9.7667   -0.1500    0.0000 C   0  0  0  0  0  0  0  0  0  0  0  0
   11.7375    3.5583    0.0000 O   0  0  0  0  0  0  0  0  0  0  0  0
    9.0375   -2.2042    0.0000 C   0  0  0  0  0  0  0  0  0  0  0  0
    8.3292   -0.9542    0.0000 C   0  0  0  0  0  0  0  0  0  0  0  0
   12.5292    3.7750    0.0000 C   0  0  0  0  0  0  0  0  0  0  0  0
    9.0667    0.2708    0.0000 C   0  0  0  0  0  0  0  0  0  0  0  0
    8.3417   -0.1292    0.0000 C   0  0  0  0  0  0  0  0  0  0  0  0
  2  1  1  0  0  0  0
  3  1  1  0  0  0  0
  4  1  2  0  0  0  0
  5  6  1  0  0  0  0
  6  4  1  0  0  0  0
  7  2  1  0  0  0  0
  8  2  1  0  0  0  0
  9  3  1  0  0  0  0
 10  5  2  0  0  0  0
 11  3  2  0  0  0  0
 12  8  1  0  0  0  0
 13  9  1  0  0  0  0
 14  4  1  0  0  0  0
 15 19  1  0  0  0  0
 16 13  2  0  0  0  0
 17 13  1  0  0  0  0
 18 16  1  0  0  0  0
 19 17  2  0  0  0  0
 20  8  2  0  0  0  0
 21 15  1  0  0  0  0
 22 12  1  0  0  0  0
 23 12  2  0  0  0  0
 24 21  1  0  0  0  0
 25 20  1  0  0  0  0
 26 25  2  0  0  0  0
  5  7  1  0  0  0  0
 15 18  2  0  0  0  0
 26 23  1  0  0  0  0
M  END
>  <ID> (6961746)
6961746

>  <Supplier> (6961746)
ChemBridge

>  <clogP> (6961746)
3.560000000000000e+000

>  <RB> (6961746)
3

>  <tPSA> (6961746)
6.239000000000002e+001

>  <Hacc> (6961746)
2

>  <Hdon> (6961746)
3

>  <LogSw> (6961746)
-4.919000000000001e+000

>  <Group> (6961746)
1

>  <Core> (6961746)
073

$$$$
7158924
  -ISIS-  03310818252D

 21 22  0  0  0  0  0  0  0  0999 V2000
    3.3042   -0.6125    0.0000 N   0  0  3  0  0  0  0  0  0  0  0  0
    2.5917   -1.0250    0.0000 C   0  0  0  0  0  0  0  0  0  0  0  0
    1.8750   -0.6125    0.0000 C   0  0  0  0  0  0  0  0  0  0  0  0
    1.1625   -1.0292    0.0000 C   0  0  0  0  0  0  0  0  0  0  0  0
   -1.6958    0.6208    0.0000 C   0  0  3  0  0  0  0  0  0  0  0  0
   -0.9833    0.2083    0.0000 C   0  0  0  0  0  0  0  0  0  0  0  0
    4.0250   -1.0167    0.0000 C   0  0  0  0  0  0  0  0  0  0  0  0
    3.2917    0.2125    0.0000 C   0  0  0  0  0  0  0  0  0  0  0  0
    2.5917   -1.8500    0.0000 O   0  0  0  0  0  0  0  0  0  0  0  0
   -0.2708    0.6208    0.0000 C   0  0  0  0  0  0  0  0  0  0  0  0
   -0.9750   -0.6250    0.0000 C   0  0  0  0  0  0  0  0  0  0  0  0
    0.4417   -0.6167    0.0000 C   0  0  0  0  0  0  0  0  0  0  0  0
    0.4500    0.2083    0.0000 C   0  0  0  0  0  0  0  0  0  0  0  0
   -0.2625   -1.0292    0.0000 C   0  0  0  0  0  0  0  0  0  0  0  0
    4.0125    0.6333    0.0000 C   0  0  0  0  0  0  0  0  0  0  0  0
    4.7375   -0.6042    0.0000 C   0  0  0  0  0  0  0  0  0  0  0  0
    4.7292    0.2250    0.0000 C   0  0  3  0  0  0  0  0  0  0  0  0
   -2.4125    0.2083    0.0000 C   0  0  0  0  0  0  0  0  0  0  0  0
   -2.1125    1.3333    0.0000 C   0  0  0  0  0  0  0  0  0  0  0  0
   -1.2875    1.3333    0.0000 C   0  0  0  0  0  0  0  0  0  0  0  0
    5.4417    0.6458    0.0000 C   0  0  0  0  0  0  0  0  0  0  0  0
  2  1  1  0  0  0  0
  3  2  1  0  0  0  0
  4  3  2  0  0  0  0
  5  6  1  0  0  0  0
  6 11  1  0  0  0  0
  7  1  1  0  0  0  0
  8  1  1  0  0  0  0
  9  2  2  0  0  0  0
 10 13  1  0  0  0  0
 11 14  2  0  0  0  0
 12  4  1  0  0  0  0
 13 12  2  0  0  0  0
 14 12  1  0  0  0  0
 15  8  1  0  0  0  0
 16  7  1  0  0  0  0
 17 15  1  0  0  0  0
 18  5  1  0  0  0  0
 19  5  1  0  0  0  0
 20  5  1  0  0  0  0
 21 17  1  0  0  0  0
 16 17  1  0  0  0  0
  6 10  2  0  0  0  0
M  END
>  <ID> (7158924)
7158924

>  <Supplier> (7158924)
ChemBridge

>  <clogP> (7158924)
5.230000000000000e+000

>  <RB> (7158924)
3

>  <tPSA> (7158924)
2.031000000000000e+001

>  <Hacc> (7158924)
1

>  <Hdon> (7158924)
0

>  <LogSw> (7158924)
-5.748000000000000e+000

>  <Group> (7158924)
1

>  <Core> (7158924)
435

$$$$
6437209
  -ISIS-  03310818242D

 24 25  0  0  0  0  0  0  0  0999 V2000
   -3.6625    0.4833    0.0000 C   0  0  0  0  0  0  0  0  0  0  0  0
   -4.2333    0.8208    0.0000 C   0  0  0  0  0  0  0  0  0  0  0  0
   -3.0833    0.8208    0.0000 C   0  0  0  0  0  0  0  0  0  0  0  0
    3.0500    1.5500    0.0000 C   0  0  0  0  0  0  0  0  0  0  0  0
    2.3167    1.2958    0.0000 C   0  0  0  0  0  0  0  0  0  0  0  0
   -4.2333    1.4958    0.0000 C   0  0  0  0  0  0  0  0  0  0  0  0
   -3.0833    1.4958    0.0000 C   0  0  0  0  0  0  0  0  0  0  0  0
   -4.6833    0.5708    0.0000 Cl  0  0  0  0  0  0  0  0  0  0  0  0
   -3.6625    1.8333    0.0000 C   0  0  0  0  0  0  0  0  0  0  0  0
    3.1000    2.0000    0.0000 O   0  0  0  0  0  0  0  0  0  0  0  0
    1.8042    1.6958    0.0000 O   0  0  0  0  0  0  0  0  0  0  0  0
   -2.3625    1.8708    0.0000 O   0  0  0  0  0  0  0  0  0  0  0  0
   -0.1458    1.4125    0.0000 O   0  0  0  0  0  0  0  0  0  0  0  0
   -3.6500    0.1000    0.0000 C   0  0  0  0  0  0  0  0  0  0  0  0
    3.6500    1.0500    0.0000 C   0  0  0  0  0  0  0  0  0  0  0  0
    2.1792    0.5208    0.0000 C   0  0  0  0  0  0  0  0  0  0  0  0
    1.1667    1.4458    0.0000 C   0  0  0  0  0  0  0  0  0  0  0  0
   -1.6625    1.4458    0.0000 C   0  0  0  0  0  0  0  0  0  0  0  0
    0.5875    1.8958    0.0000 C   0  0  0  0  0  0  0  0  0  0  0  0
   -0.8625    1.8958    0.0000 C   0  0  0  0  0  0  0  0  0  0  0  0
    3.6375    2.2125    0.0000 C   0  0  0  0  0  0  0  0  0  0  0  0
   -3.1625   -0.0292    0.0000 C   0  0  0  0  0  0  0  0  0  0  0  0
    2.7667    0.0125    0.0000 C   0  0  0  0  0  0  0  0  0  0  0  0
    3.5042    0.2833    0.0000 C   0  0  0  0  0  0  0  0  0  0  0  0
  2  1  2  0  0  0  0
  3  1  1  0  0  0  0
  4  5  2  0  0  0  0
  5 11  1  0  0  0  0
  6  2  1  0  0  0  0
  7  3  2  0  0  0  0
  8  2  1  0  0  0  0
  9  7  1  0  0  0  0
 10  4  1  0  0  0  0
 11 17  1  0  0  0  0
 12  7  1  0  0  0  0
 13 20  1  0  0  0  0
 14  1  1  0  0  0  0
 15  4  1  0  0  0  0
 16  5  1  0  0  0  0
 17 19  1  0  0  0  0
 18 12  1  0  0  0  0
 19 13  1  0  0  0  0
 20 18  1  0  0  0  0
 21 10  1  0  0  0  0
 22 14  1  0  0  0  0
 23 16  2  0  0  0  0
 24 23  1  0  0  0  0
  9  6  2  0  0  0  0
 24 15  2  0  0  0  0
M  END
>  <ID> (6437209)
6437209

>  <Supplier> (6437209)
ChemBridge

>  <clogP> (6437209)
5.430000000000002e+000

>  <RB> (6437209)
8

>  <tPSA> (6437209)
3.692000000000000e+001

>  <Hacc> (6437209)
4

>  <Hdon> (6437209)
0

>  <LogSw> (6437209)
-6.395000000000000e+000

>  <Group> (6437209)
1

>  <Core> (6437209)
317

$$$$
5466324
  -ISIS-  03310818222D

 23 26  0  0  0  0  0  0  0  0999 V2000
   -0.2000   -1.0000    0.0000 N   0  0  3  0  0  0  0  0  0  0  0  0
   -1.0708   -0.7167    0.0000 C   0  0  0  0  0  0  0  0  0  0  0  0
    0.3542   -0.2292    0.0000 N   0  0  0  0  0  0  0  0  0  0  0  0
   -1.0833    0.2208    0.0000 C   0  0  0  0  0  0  0  0  0  0  0  0
   -0.2125    0.5208    0.0000 C   0  0  0  0  0  0  0  0  0  0  0  0
   -1.8958    0.6625    0.0000 C   0  0  0  0  0  0  0  0  0  0  0  0
   -1.8708   -1.1792    0.0000 N   0  0  0  0  0  0  0  0  0  0  0  0
   -2.6833    0.1958    0.0000 N   0  0  0  0  0  0  0  0  0  0  0  0
    0.6000    1.6000    0.0000 C   0  0  0  0  0  0  0  0  0  0  0  0
   -1.1333    2.0625    0.0000 N   0  0  0  0  0  0  0  0  0  0  0  0
    1.3042    1.1333    0.0000 S   0  0  0  0  0  0  0  0  0  0  0  0
   -2.6708   -0.7042    0.0000 C   0  0  0  0  0  0  0  0  0  0  0  0
    0.0667   -1.8667    0.0000 C   0  0  0  0  0  0  0  0  0  0  0  0
   -0.3333    1.6000    0.0000 C   0  0  0  0  0  0  0  0  0  0  0  0
   -1.9125    1.5833    0.0000 N   0  0  0  0  0  0  0  0  0  0  0  0
    2.0000    1.6000    0.0000 C   0  0  0  0  0  0  0  0  0  0  0  0
    0.6000    2.3833    0.0000 C   0  0  0  0  0  0  0  0  0  0  0  0
    2.0000    2.3833    0.0000 C   0  0  0  0  0  0  0  0  0  0  0  0
    0.9792   -2.0792    0.0000 C   0  0  0  0  0  0  0  0  0  0  0  0
   -0.5500   -2.5542    0.0000 C   0  0  0  0  0  0  0  0  0  0  0  0
    1.2500   -2.9792    0.0000 C   0  0  0  0  0  0  0  0  0  0  0  0
   -0.2833   -3.4500    0.0000 C   0  0  0  0  0  0  0  0  0  0  0  0
    0.6042   -3.6542    0.0000 C   0  0  0  0  0  0  0  0  0  0  0  0
  2  1  1  0  0  0  0
  3  1  1  0  0  0  0
  4  2  2  0  0  0  0
  5  3  2  0  0  0  0
  6  4  1  0  0  0  0
  7  2  1  0  0  0  0
  8 12  1  0  0  0  0
  9 14  1  0  0  0  0
 10 15  1  0  0  0  0
 11  9  1  0  0  0  0
 12  7  2  0  0  0  0
 13  1  1  0  0  0  0
 14 10  2  0  0  0  0
 15  6  1  0  0  0  0
 16 11  1  0  0  0  0
 17  9  2  0  0  0  0
 18 17  1  0  0  0  0
 19 13  1  0  0  0  0
 20 13  2  0  0  0  0
 21 19  2  0  0  0  0
 22 20  1  0  0  0  0
 23 22  2  0  0  0  0
  4  5  1  0  0  0  0
 23 21  1  0  0  0  0
  8  6  2  0  0  0  0
 16 18  2  0  0  0  0
M  END
>  <ID> (5466324)
5466324

>  <Supplier> (5466324)
ChemBridge

>  <clogP> (5466324)
3.900000000000000e+000

>  <RB> (5466324)
4

>  <tPSA> (5466324)
6.799000000000001e+001

>  <Hacc> (5466324)
5

>  <Hdon> (5466324)
1

>  <LogSw> (5466324)
-4.866999999999998e+000

>  <Group> (5466324)
2

>  <Core> (5466324)
340

$$$$
9049527
  -ISIS-  03310818282D

 22 24  0  0  0  0  0  0  0  0999 V2000
    7.2417    1.2708    0.0000 C   0  0  3  0  0  0  0  0  0  0  0  0
    5.7417    1.2708    0.0000 N   0  0  3  0  0  0  0  0  0  0  0  0
    6.8667    1.9208    0.0000 C   0  0  0  0  0  0  0  0  0  0  0  0
    6.8667    0.6208    0.0000 C   0  0  0  0  0  0  0  0  0  0  0  0
    4.6167    1.9208    0.0000 C   0  0  0  0  0  0  0  0  0  0  0  0
    7.6792    0.6583    0.0000 O   0  0  0  0  0  0  0  0  0  0  0  0
    7.6792    1.8750    0.0000 O   0  0  0  0  0  0  0  0  0  0  0  0
    3.8667    1.9208    0.0000 N   0  0  0  0  0  0  0  0  0  0  0  0
    4.9917    1.2708    0.0000 C   0  0  0  0  0  0  0  0  0  0  0  0
    4.9917    2.5708    0.0000 O   0  0  0  0  0  0  0  0  0  0  0  0
    6.1167    0.6208    0.0000 C   0  0  0  0  0  0  0  0  0  0  0  0
    6.1167    1.9208    0.0000 C   0  0  0  0  0  0  0  0  0  0  0  0
    3.4917    2.5708    0.0000 C   0  0  0  0  0  0  0  0  0  0  0  0
    1.2417    2.5708    0.0000 C   0  0  0  0  0  0  0  0  0  0  0  0
    2.7417    2.5708    0.0000 C   0  0  0  0  0  0  0  0  0  0  0  0
    0.4917    2.5708    0.0000 Cl  0  0  0  0  0  0  0  0  0  0  0  0
    1.6167    1.9208    0.0000 C   0  0  0  0  0  0  0  0  0  0  0  0
    1.6167    3.2208    0.0000 C   0  0  0  0  0  0  0  0  0  0  0  0
    2.3667    1.9208    0.0000 C   0  0  0  0  0  0  0  0  0  0  0  0
    2.3667    3.2208    0.0000 C   0  0  0  0  0  0  0  0  0  0  0  0
    8.3917    1.6458    0.0000 C   0  0  0  0  0  0  0  0  0  0  0  0
    8.3917    0.8958    0.0000 C   0  0  0  0  0  0  0  0  0  0  0  0
  2 11  1  0  0  0  0
  3  1  1  0  0  0  0
  4  1  1  0  0  0  0
  5  9  1  0  0  0  0
  6  1  1  0  0  0  0
  7  1  1  0  0  0  0
  8  5  1  0  0  0  0
  9  2  1  0  0  0  0
 10  5  2  0  0  0  0
 11  4  1  0  0  0  0
 12  3  1  0  0  0  0
 13  8  1  0  0  0  0
 14 18  1  0  0  0  0
 15 13  1  0  0  0  0
 16 14  1  0  0  0  0
 17 19  1  0  0  0  0
 18 20  2  0  0  0  0
 19 15  2  0  0  0  0
 20 15  1  0  0  0  0
 21  7  1  0  0  0  0
 22  6  1  0  0  0  0
 22 21  1  0  0  0  0
 12  2  1  0  0  0  0
 17 14  2  0  0  0  0
M  END
>  <ID> (9049527)
9049527

>  <Supplier> (9049527)
ChemBridge

>  <clogP> (9049527)
1.784000000000000e+000

>  <RB> (9049527)
4

>  <tPSA> (9049527)
5.080000000000000e+001

>  <Hacc> (9049527)
4

>  <Hdon> (9049527)
1

>  <LogSw> (9049527)
-3.342000000000000e+000

>  <Group> (9049527)
3

$$$$
7409651
  -ISIS-  03310818262D

 25 27  0  0  0  0  0  0  0  0999 V2000
    5.3000   -3.9250    0.0000 C   0  0  0  0  0  0  0  0  0  0  0  0
    3.9792   -3.6542    0.0000 N   0  0  3  0  0  0  0  0  0  0  0  0
    4.5292   -4.2667    0.0000 C   0  0  0  0  0  0  0  0  0  0  0  0
    4.4000   -2.9417    0.0000 N   0  0  0  0  0  0  0  0  0  0  0  0
    0.6917   -3.9792    0.0000 S   0  0  3  0  0  0  0  0  0  0  0  0
    5.2042   -3.1167    0.0000 C   0  0  0  0  0  0  0  0  0  0  0  0
    6.0167   -4.3292    0.0000 C   0  0  0  0  0  0  0  0  0  0  0  0
    1.5125   -3.9042    0.0000 C   0  0  0  0  0  0  0  0  0  0  0  0
    3.1542   -3.7375    0.0000 C   0  0  0  0  0  0  0  0  0  0  0  0
    6.0167   -5.1542    0.0000 C   0  0  0  0  0  0  0  0  0  0  0  0
    0.7667   -4.7917    0.0000 O   0  0  0  0  0  0  0  0  0  0  0  0
    0.6042   -3.1542    0.0000 O   0  0  0  0  0  0  0  0  0  0  0  0
    4.3625   -5.0792    0.0000 O   0  0  0  0  0  0  0  0  0  0  0  0
   -0.1333   -4.0542    0.0000 N   0  0  0  0  0  0  0  0  0  0  0  0
    6.7375   -5.5667    0.0000 C   0  0  0  0  0  0  0  0  0  0  0  0
    1.8542   -3.1500    0.0000 C   0  0  0  0  0  0  0  0  0  0  0  0
    1.9917   -4.5750    0.0000 C   0  0  0  0  0  0  0  0  0  0  0  0
    2.6750   -3.0667    0.0000 C   0  0  0  0  0  0  0  0  0  0  0  0
    2.8167   -4.4917    0.0000 C   0  0  0  0  0  0  0  0  0  0  0  0
    7.4542   -5.1417    0.0000 Cl  0  0  0  0  0  0  0  0  0  0  0  0
    5.8167   -2.5625    0.0000 C   0  0  0  0  0  0  0  0  0  0  0  0
    5.3125   -5.5750    0.0000 C   0  0  0  0  0  0  0  0  0  0  0  0
    6.7375   -6.4000    0.0000 C   0  0  0  0  0  0  0  0  0  0  0  0
    5.3125   -6.4000    0.0000 C   0  0  0  0  0  0  0  0  0  0  0  0
    6.0167   -6.8125    0.0000 C   0  0  0  0  0  0  0  0  0  0  0  0
  2  3  1  0  0  0  0
  3  1  1  0  0  0  0
  4  6  2  0  0  0  0
  5  8  1  0  0  0  0
  6  1  1  0  0  0  0
  7  1  2  0  0  0  0
  8 17  1  0  0  0  0
  9  2  1  0  0  0  0
 10  7  1  0  0  0  0
 11  5  2  0  0  0  0
 12  5  2  0  0  0  0
 13  3  2  0  0  0  0
 14  5  1  0  0  0  0
 15 10  2  0  0  0  0
 16 18  1  0  0  0  0
 17 19  2  0  0  0  0
 18  9  2  0  0  0  0
 19  9  1  0  0  0  0
 20 15  1  0  0  0  0
 21  6  1  0  0  0  0
 22 10  1  0  0  0  0
 23 15  1  0  0  0  0
 24 22  2  0  0  0  0
 25 24  1  0  0  0  0
  4  2  1  0  0  0  0
 25 23  2  0  0  0  0
 16  8  2  0  0  0  0
M  END
>  <ID> (7409651)
7409651

>  <Supplier> (7409651)
ChemBridge

>  <clogP> (7409651)
2.139000000000000e+000

>  <RB> (7409651)
3

>  <tPSA> (7409651)
9.283000000000000e+001

>  <Hacc> (7409651)
5

>  <Hdon> (7409651)
1

>  <LogSw> (7409651)
-5.035000000000000e+000

>  <Group> (7409651)
2

>  <Core> (7409651)
046

$$$$
5174872
  -ISIS-  03310818212D

 19 19  0  0  0  0  0  0  0  0999 V2000
   -3.4833    0.0500    0.0000 C   0  0  0  0  0  0  0  0  0  0  0  0
    0.8542   -0.4500    0.0000 C   0  0  0  0  0  0  0  0  0  0  0  0
   -0.0208    0.0500    0.0000 N   0  0  0  0  0  0  0  0  0  0  0  0
   -3.4833    1.0500    0.0000 O   0  0  0  0  0  0  0  0  0  0  0  0
   -2.6208   -0.4500    0.0000 O   0  0  0  0  0  0  0  0  0  0  0  0
    0.8542   -1.4500    0.0000 O   0  0  0  0  0  0  0  0  0  0  0  0
   -4.3458   -0.4500    0.0000 N   0  0  0  0  0  0  0  0  0  0  0  0
    2.5792   -0.4500    0.0000 O   0  0  0  0  0  0  0  0  0  0  0  0
    1.7167    0.0500    0.0000 C   0  0  0  0  0  0  0  0  0  0  0  0
   -0.8833   -0.4500    0.0000 C   0  0  0  0  0  0  0  0  0  0  0  0
    3.4542    0.0708    0.0000 C   0  0  0  0  0  0  0  0  0  0  0  0
   -1.7458    0.0500    0.0000 C   0  0  3  0  0  0  0  0  0  0  0  0
   -5.2083    0.0500    0.0000 C   0  0  0  0  0  0  0  0  0  0  0  0
    4.3167   -0.4500    0.0000 C   0  0  0  0  0  0  0  0  0  0  0  0
    3.4542    1.0708    0.0000 C   0  0  0  0  0  0  0  0  0  0  0  0
   -1.7458    1.0500    0.0000 C   0  0  0  0  0  0  0  0  0  0  0  0
    4.3167    1.5708    0.0000 C   0  0  0  0  0  0  0  0  0  0  0  0
    5.1792    0.0708    0.0000 C   0  0  0  0  0  0  0  0  0  0  0  0
    5.1792    1.0708    0.0000 C   0  0  0  0  0  0  0  0  0  0  0  0
  2  3  1  0  0  0  0
  3 10  1  0  0  0  0
  4  1  2  0  0  0  0
  5  1  1  0  0  0  0
  6  2  2  0  0  0  0
  7  1  1  0  0  0  0
  8  9  1  0  0  0  0
  9  2  1  0  0  0  0
 10 12  1  0  0  0  0
 11  8  1  0  0  0  0
 12  5  1  0  0  0  0
 13  7  1  0  0  0  0
 14 11  1  0  0  0  0
 15 11  2  0  0  0  0
 16 12  1  0  0  0  0
 17 15  1  0  0  0  0
 18 14  2  0  0  0  0
 19 17  2  0  0  0  0
 18 19  1  0  0  0  0
M  END
>  <ID> (5174872)
5174872

>  <Supplier> (5174872)
ChemBridge

>  <clogP> (5174872)
1.440000000000000e+000

>  <RB> (5174872)
7

>  <tPSA> (5174872)
7.666000000000000e+001

>  <Hacc> (5174872)
4

>  <Hdon> (5174872)
2

>  <LogSw> (5174872)
-2.371999999999999e+000

>  <Group> (5174872)
3

>  <Core> (5174872)
315

$$$$
5174871
  -ISIS-  03310818212D

 15 15  0  0  0  0  0  0  0  0999 V2000
   -0.3000    1.3000    0.0000 C   0  0  0  0  0  0  0  0  0  0  0  0
   -1.0458    0.8833    0.0000 N   0  0  0  0  0  0  0  0  0  0  0  0
   -0.3000    2.1458    0.0000 O   0  0  0  0  0  0  0  0  0  0  0  0
    0.4000    0.0458    0.0000 O   0  0  0  0  0  0  0  0  0  0  0  0
    0.4167    0.8833    0.0000 C   0  0  0  0  0  0  0  0  0  0  0  0
   -1.0458    0.0458    0.0000 C   0  0  0  0  0  0  0  0  0  0  0  0
    1.1375   -0.4000    0.0000 C   0  0  0  0  0  0  0  0  0  0  0  0
   -2.4833    0.0458    0.0000 O   0  0  0  0  0  0  0  0  0  0  0  0
   -1.7625   -0.3792    0.0000 C   0  0  3  0  0  0  0  0  0  0  0  0
    1.8542    0.0208    0.0000 C   0  0  0  0  0  0  0  0  0  0  0  0
    1.1375   -1.2375    0.0000 C   0  0  0  0  0  0  0  0  0  0  0  0
   -1.7625   -1.2375    0.0000 C   0  0  0  0  0  0  0  0  0  0  0  0
    2.5792   -0.4000    0.0000 C   0  0  0  0  0  0  0  0  0  0  0  0
    1.8542   -1.6542    0.0000 C   0  0  0  0  0  0  0  0  0  0  0  0
    2.5792   -1.2375    0.0000 C   0  0  0  0  0  0  0  0  0  0  0  0
  2  1  1  0  0  0  0
  3  1  2  0  0  0  0
  4  5  1  0  0  0  0
  5  1  1  0  0  0  0
  6  2  1  0  0  0  0
  7  4  1  0  0  0  0
  8  9  1  0  0  0  0
  9  6  1  0  0  0  0
 10  7  1  0  0  0  0
 11  7  2  0  0  0  0
 12  9  1  0  0  0  0
 13 10  2  0  0  0  0
 14 11  1  0  0  0  0
 15 14  2  0  0  0  0
 13 15  1  0  0  0  0
M  END
>  <ID> (5174871)
5174871

>  <Supplier> (5174871)
ChemBridge

>  <clogP> (5174871)
8.000000000000000e-001

>  <RB> (5174871)
5

>  <tPSA> (5174871)
5.856000000000000e+001

>  <Hacc> (5174871)
3

>  <Hdon> (5174871)
2

>  <LogSw> (5174871)
-1.411000000000000e+000

>  <Group> (5174871)
2

>  <Core> (5174871)
315

$$$$
9113584
  -ISIS-  03310818292D

 19 20  0  0  0  0  0  0  0  0999 V2000
    2.9750    1.5208    0.0000 C   0  0  0  0  0  0  0  0  0  0  0  0
    3.3500    2.1708    0.0000 N   0  0  0  0  0  0  0  0  0  0  0  0
    4.1000    2.1708    0.0000 C   0  0  0  0  0  0  0  0  0  0  0  0
    3.3500    0.8708    0.0000 O   0  0  0  0  0  0  0  0  0  0  0  0
    2.2250    1.5208    0.0000 C   0  0  0  0  0  0  0  0  0  0  0  0
    4.4750    1.5208    0.0000 C   0  0  0  0  0  0  0  0  0  0  0  0
    0.7250    1.5208    0.0000 N   0  0  0  0  0  0  0  0  0  0  0  0
    5.2250    1.5208    0.0000 C   0  0  0  0  0  0  0  0  0  0  0  0
    5.6000    0.8708    0.0000 O   0  0  0  0  0  0  0  0  0  0  0  0
    5.2250    2.8208    0.0000 C   0  0  0  0  0  0  0  0  0  0  0  0
    1.1000    0.8708    0.0000 C   0  0  0  0  0  0  0  0  0  0  0  0
    1.1000    2.1708    0.0000 C   0  0  0  0  0  0  0  0  0  0  0  0
    4.4750    2.8208    0.0000 C   0  0  0  0  0  0  0  0  0  0  0  0
    1.8500    0.8708    0.0000 C   0  0  0  0  0  0  0  0  0  0  0  0
    1.8500    2.1708    0.0000 C   0  0  0  0  0  0  0  0  0  0  0  0
    5.6000    2.1708    0.0000 C   0  0  0  0  0  0  0  0  0  0  0  0
    6.3500    0.8708    0.0000 C   0  0  0  0  0  0  0  0  0  0  0  0
    6.7250    0.2208    0.0000 C   0  0  0  0  0  0  0  0  0  0  0  0
    7.4750    0.2208    0.0000 C   0  0  0  0  0  0  0  0  0  0  0  0
  2  1  1  0  0  0  0
  3  2  1  0  0  0  0
  4  1  2  0  0  0  0
  5  1  1  0  0  0  0
  6  3  2  0  0  0  0
  7 12  1  0  0  0  0
  8  6  1  0  0  0  0
  9  8  1  0  0  0  0
 10 13  2  0  0  0  0
 11 14  1  0  0  0  0
 12 15  2  0  0  0  0
 13  3  1  0  0  0  0
 14  5  2  0  0  0  0
 15  5  1  0  0  0  0
 16 10  1  0  0  0  0
 17  9  1  0  0  0  0
 18 17  1  0  0  0  0
 19 18  1  0  0  0  0
 11  7  2  0  0  0  0
  8 16  2  0  0  0  0
M  END
>  <ID> (9113584)
9113584

>  <Supplier> (9113584)
ChemBridge

>  <clogP> (9113584)
2.929000000000000e+000

>  <RB> (9113584)
3

>  <tPSA> (9113584)
5.121999999999999e+001

>  <Hacc> (9113584)
3

>  <Hdon> (9113584)
1

>  <LogSw> (9113584)
-3.571000000000000e+000

>  <Group> (9113584)
2

$$$$
5174876
  -ISIS-  03310818212D

 25 26  0  0  0  0  0  0  0  0999 V2000
   -0.9958   -0.6542    0.0000 C   0  0  0  0  0  0  0  0  0  0  0  0
   -1.6708   -1.0542    0.0000 N   0  0  0  0  0  0  0  0  0  0  0  0
    2.4042   -1.0542    0.0000 C   0  0  0  0  0  0  0  0  0  0  0  0
   -0.9958    0.1458    0.0000 O   0  0  0  0  0  0  0  0  0  0  0  0
   -0.3125   -1.0542    0.0000 O   0  0  0  0  0  0  0  0  0  0  0  0
    1.7292   -0.6542    0.0000 N   0  0  0  0  0  0  0  0  0  0  0  0
   -2.3500   -0.6542    0.0000 C   0  0  0  0  0  0  0  0  0  0  0  0
   -3.0333   -1.0542    0.0000 C   0  0  0  0  0  0  0  0  0  0  0  0
    2.4292   -1.8375    0.0000 O   0  0  0  0  0  0  0  0  0  0  0  0
    3.7500   -1.0375    0.0000 O   0  0  0  0  0  0  0  0  0  0  0  0
    3.0667   -0.6542    0.0000 C   0  0  0  0  0  0  0  0  0  0  0  0
   -3.7125   -0.6542    0.0000 C   0  0  0  0  0  0  0  0  0  0  0  0
    1.0500   -1.0542    0.0000 C   0  0  0  0  0  0  0  0  0  0  0  0
   -4.3958   -1.0542    0.0000 Cl  0  0  0  0  0  0  0  0  0  0  0  0
    4.4292   -0.6375    0.0000 C   0  0  0  0  0  0  0  0  0  0  0  0
    0.3667   -0.6542    0.0000 C   0  0  3  0  0  0  0  0  0  0  0  0
   -3.0333    0.5208    0.0000 C   0  0  0  0  0  0  0  0  0  0  0  0
   -2.3500    0.1458    0.0000 C   0  0  0  0  0  0  0  0  0  0  0  0
   -3.7125    0.1458    0.0000 C   0  0  0  0  0  0  0  0  0  0  0  0
    5.1042   -1.0167    0.0000 C   0  0  0  0  0  0  0  0  0  0  0  0
    4.4292    0.1625    0.0000 C   0  0  0  0  0  0  0  0  0  0  0  0
    0.3667    0.1458    0.0000 C   0  0  0  0  0  0  0  0  0  0  0  0
    5.7875   -0.6375    0.0000 C   0  0  0  0  0  0  0  0  0  0  0  0
    5.1042    0.5625    0.0000 C   0  0  0  0  0  0  0  0  0  0  0  0
    5.7875    0.1625    0.0000 C   0  0  0  0  0  0  0  0  0  0  0  0
  2  1  1  0  0  0  0
  3  6  1  0  0  0  0
  4  1  2  0  0  0  0
  5  1  1  0  0  0  0
  6 13  1  0  0  0  0
  7  2  1  0  0  0  0
  8  7  1  0  0  0  0
  9  3  2  0  0  0  0
 10 11  1  0  0  0  0
 11  3  1  0  0  0  0
 12  8  2  0  0  0  0
 13 16  1  0  0  0  0
 14 12  1  0  0  0  0
 15 10  1  0  0  0  0
 16  5  1  0  0  0  0
 17 18  1  0  0  0  0
 18  7  2  0  0  0  0
 19 17  2  0  0  0  0
 20 15  1  0  0  0  0
 21 15  2  0  0  0  0
 22 16  1  0  0  0  0
 23 20  2  0  0  0  0
 24 21  1  0  0  0  0
 25 24  2  0  0  0  0
 19 12  1  0  0  0  0
 23 25  1  0  0  0  0
M  END
>  <ID> (5174876)
5174876

>  <Supplier> (5174876)
ChemBridge

>  <clogP> (5174876)
3.950000000000000e+000

>  <RB> (5174876)
8

>  <tPSA> (5174876)
7.666000000000000e+001

>  <Hacc> (5174876)
4

>  <Hdon> (5174876)
2

>  <LogSw> (5174876)
-5.219000000000000e+000

>  <Group> (5174876)
1

>  <Core> (5174876)
315

$$$$
5174875
  -ISIS-  03310818212D

 25 26  0  0  0  0  0  0  0  0999 V2000
   -0.9958   -0.6542    0.0000 C   0  0  0  0  0  0  0  0  0  0  0  0
   -1.6708   -1.0542    0.0000 N   0  0  0  0  0  0  0  0  0  0  0  0
   -2.3500   -0.6542    0.0000 C   0  0  0  0  0  0  0  0  0  0  0  0
    2.4042   -1.0542    0.0000 C   0  0  0  0  0  0  0  0  0  0  0  0
   -0.9958    0.1458    0.0000 O   0  0  0  0  0  0  0  0  0  0  0  0
   -0.3125   -1.0542    0.0000 O   0  0  0  0  0  0  0  0  0  0  0  0
    1.7292   -0.6542    0.0000 N   0  0  0  0  0  0  0  0  0  0  0  0
   -3.0333   -1.0542    0.0000 C   0  0  0  0  0  0  0  0  0  0  0  0
    2.4292   -1.8375    0.0000 O   0  0  0  0  0  0  0  0  0  0  0  0
    3.7500   -1.0375    0.0000 O   0  0  0  0  0  0  0  0  0  0  0  0
    3.0667   -0.6542    0.0000 C   0  0  0  0  0  0  0  0  0  0  0  0
   -3.0333   -1.8375    0.0000 Cl  0  0  0  0  0  0  0  0  0  0  0  0
    1.0500   -1.0542    0.0000 C   0  0  0  0  0  0  0  0  0  0  0  0
    4.4292   -0.6375    0.0000 C   0  0  0  0  0  0  0  0  0  0  0  0
    0.3667   -0.6542    0.0000 C   0  0  3  0  0  0  0  0  0  0  0  0
   -2.3500    0.1458    0.0000 C   0  0  0  0  0  0  0  0  0  0  0  0
   -3.7125   -0.6542    0.0000 C   0  0  0  0  0  0  0  0  0  0  0  0
    4.4292    0.1625    0.0000 C   0  0  0  0  0  0  0  0  0  0  0  0
    5.1042   -1.0167    0.0000 C   0  0  0  0  0  0  0  0  0  0  0  0
    0.3667    0.1458    0.0000 C   0  0  0  0  0  0  0  0  0  0  0  0
   -3.0333    0.5208    0.0000 C   0  0  0  0  0  0  0  0  0  0  0  0
   -3.7125    0.1458    0.0000 C   0  0  0  0  0  0  0  0  0  0  0  0
    5.1042    0.5625    0.0000 C   0  0  0  0  0  0  0  0  0  0  0  0
    5.7875   -0.6375    0.0000 C   0  0  0  0  0  0  0  0  0  0  0  0
    5.7875    0.1625    0.0000 C   0  0  0  0  0  0  0  0  0  0  0  0
  2  1  1  0  0  0  0
  3  2  1  0  0  0  0
  4  7  1  0  0  0  0
  5  1  2  0  0  0  0
  6  1  1  0  0  0  0
  7 13  1  0  0  0  0
  8  3  1  0  0  0  0
  9  4  2  0  0  0  0
 10 11  1  0  0  0  0
 11  4  1  0  0  0  0
 12  8  1  0  0  0  0
 13 15  1  0  0  0  0
 14 10  1  0  0  0  0
 15  6  1  0  0  0  0
 16  3  2  0  0  0  0
 17  8  2  0  0  0  0
 18 14  2  0  0  0  0
 19 14  1  0  0  0  0
 20 15  1  0  0  0  0
 21 16  1  0  0  0  0
 22 21  2  0  0  0  0
 23 18  1  0  0  0  0
 24 19  2  0  0  0  0
 25 24  1  0  0  0  0
 17 22  1  0  0  0  0
 25 23  2  0  0  0  0
M  END
>  <ID> (5174875)
5174875

>  <Supplier> (5174875)
ChemBridge

>  <clogP> (5174875)
3.390000000000000e+000

>  <RB> (5174875)
8

>  <tPSA> (5174875)
7.666000000000000e+001

>  <Hacc> (5174875)
4

>  <Hdon> (5174875)
2

>  <LogSw> (5174875)
-4.740000000000000e+000

>  <Group> (5174875)
3

>  <Core> (5174875)
315

$$$$
5174874
  -ISIS-  03310818212D

 24 25  0  0  0  0  0  0  0  0999 V2000
   -0.9958   -0.6542    0.0000 C   0  0  0  0  0  0  0  0  0  0  0  0
   -1.6708   -1.0542    0.0000 N   0  0  0  0  0  0  0  0  0  0  0  0
    2.4042   -1.0542    0.0000 C   0  0  0  0  0  0  0  0  0  0  0  0
   -0.9958    0.1458    0.0000 O   0  0  0  0  0  0  0  0  0  0  0  0
   -0.3125   -1.0542    0.0000 O   0  0  0  0  0  0  0  0  0  0  0  0
    1.7292   -0.6542    0.0000 N   0  0  0  0  0  0  0  0  0  0  0  0
    2.4292   -1.8375    0.0000 O   0  0  0  0  0  0  0  0  0  0  0  0
    3.7500   -1.0375    0.0000 O   0  0  0  0  0  0  0  0  0  0  0  0
    3.0667   -0.6542    0.0000 C   0  0  0  0  0  0  0  0  0  0  0  0
   -2.3500   -0.6542    0.0000 C   0  0  0  0  0  0  0  0  0  0  0  0
    1.0500   -1.0542    0.0000 C   0  0  0  0  0  0  0  0  0  0  0  0
    4.4292   -0.6375    0.0000 C   0  0  0  0  0  0  0  0  0  0  0  0
    0.3667   -0.6542    0.0000 C   0  0  3  0  0  0  0  0  0  0  0  0
   -2.3500    0.1458    0.0000 C   0  0  0  0  0  0  0  0  0  0  0  0
   -3.0333   -1.0542    0.0000 C   0  0  0  0  0  0  0  0  0  0  0  0
    4.4292    0.1625    0.0000 C   0  0  0  0  0  0  0  0  0  0  0  0
    5.1042   -1.0167    0.0000 C   0  0  0  0  0  0  0  0  0  0  0  0
    0.3667    0.1458    0.0000 C   0  0  0  0  0  0  0  0  0  0  0  0
    5.1042    0.5625    0.0000 C   0  0  0  0  0  0  0  0  0  0  0  0
   -3.0333    0.5208    0.0000 C   0  0  0  0  0  0  0  0  0  0  0  0
   -3.7125   -0.6542    0.0000 C   0  0  0  0  0  0  0  0  0  0  0  0
    5.7875   -0.6375    0.0000 C   0  0  0  0  0  0  0  0  0  0  0  0
    5.7875    0.1625    0.0000 C   0  0  0  0  0  0  0  0  0  0  0  0
   -3.7125    0.1458    0.0000 C   0  0  0  0  0  0  0  0  0  0  0  0
  2  1  1  0  0  0  0
  3  6  1  0  0  0  0
  4  1  2  0  0  0  0
  5  1  1  0  0  0  0
  6 11  1  0  0  0  0
  7  3  2  0  0  0  0
  8  9  1  0  0  0  0
  9  3  1  0  0  0  0
 10  2  1  0  0  0  0
 11 13  1  0  0  0  0
 12  8  1  0  0  0  0
 13  5  1  0  0  0  0
 14 10  2  0  0  0  0
 15 10  1  0  0  0  0
 16 12  2  0  0  0  0
 17 12  1  0  0  0  0
 18 13  1  0  0  0  0
 19 16  1  0  0  0  0
 20 14  1  0  0  0  0
 21 15  2  0  0  0  0
 22 17  2  0  0  0  0
 23 22  1  0  0  0  0
 24 21  1  0  0  0  0
 24 20  2  0  0  0  0
 19 23  2  0  0  0  0
M  END
>  <ID> (5174874)
5174874

>  <Supplier> (5174874)
ChemBridge

>  <clogP> (5174874)
3.020000000000000e+000

>  <RB> (5174874)
8

>  <tPSA> (5174874)
7.666000000000000e+001

>  <Hacc> (5174874)
4

>  <Hdon> (5174874)
2

>  <LogSw> (5174874)
-4.174000000000000e+000

>  <Group> (5174874)
3

>  <Core> (5174874)
315

$$$$
9146037
  -ISIS-  03310818292D

 25 27  0  0  0  0  0  0  0  0999 V2000
    2.5875    2.4125    0.0000 C   0  0  0  0  0  0  0  0  0  0  0  0
    5.2125    1.7625    0.0000 C   0  0  0  0  0  0  0  0  0  0  0  0
    2.9625    3.0625    0.0000 N   0  0  0  0  0  0  0  0  0  0  0  0
    5.9625    1.7625    0.0000 N   0  0  0  0  0  0  0  0  0  0  0  0
    4.8375    2.4125    0.0000 C   0  0  0  0  0  0  0  0  0  0  0  0
    1.8375    2.4125    0.0000 N   0  0  0  0  0  0  0  0  0  0  0  0
    2.9625    1.7625    0.0000 O   0  0  0  0  0  0  0  0  0  0  0  0
    4.0875    2.4125    0.0000 C   0  0  0  0  0  0  0  0  0  0  0  0
    3.7125    3.0625    0.0000 C   0  0  0  0  0  0  0  0  0  0  0  0
    4.8375    1.1125    0.0000 O   0  0  0  0  0  0  0  0  0  0  0  0
    7.5292    0.5083    0.0000 O   0  0  0  0  0  0  0  0  0  0  0  0
    6.3375    1.1125    0.0000 C   0  0  0  0  0  0  0  0  0  0  0  0
    1.4625    1.7625    0.0000 C   0  0  0  0  0  0  0  0  0  0  0  0
    7.0875    1.1125    0.0000 C   0  0  3  0  0  0  0  0  0  0  0  0
    5.2125    3.0625    0.0000 C   0  0  0  0  0  0  0  0  0  0  0  0
    4.8375    3.7125    0.0000 C   0  0  0  0  0  0  0  0  0  0  0  0
    4.0875    3.7125    0.0000 C   0  0  0  0  0  0  0  0  0  0  0  0
    8.2417    0.7375    0.0000 C   0  0  0  0  0  0  0  0  0  0  0  0
    0.7125    1.7625    0.0000 C   0  0  0  0  0  0  0  0  0  0  0  0
    1.8375    1.1125    0.0000 C   0  0  0  0  0  0  0  0  0  0  0  0
    7.5292    1.7208    0.0000 C   0  0  0  0  0  0  0  0  0  0  0  0
    8.2417    1.4875    0.0000 C   0  0  0  0  0  0  0  0  0  0  0  0
    1.4625    0.4708    0.0000 C   0  0  0  0  0  0  0  0  0  0  0  0
    0.3375    1.1125    0.0000 C   0  0  0  0  0  0  0  0  0  0  0  0
    0.7125    0.4708    0.0000 C   0  0  0  0  0  0  0  0  0  0  0  0
  2  5  1  0  0  0  0
  3  1  1  0  0  0  0
  4  2  1  0  0  0  0
  5  8  2  0  0  0  0
  6  1  1  0  0  0  0
  7  1  2  0  0  0  0
  8  9  1  0  0  0  0
  9  3  1  0  0  0  0
 10  2  2  0  0  0  0
 11 14  1  0  0  0  0
 12  4  1  0  0  0  0
 13  6  1  0  0  0  0
 14 12  1  0  0  0  0
 15 16  2  0  0  0  0
 16 17  1  0  0  0  0
 17  9  2  0  0  0  0
 18 11  1  0  0  0  0
 19 13  2  0  0  0  0
 20 13  1  0  0  0  0
 21 14  1  0  0  0  0
 22 21  1  0  0  0  0
 23 20  2  0  0  0  0
 24 19  1  0  0  0  0
 25 23  1  0  0  0  0
 25 24  2  0  0  0  0
 15  5  1  0  0  0  0
 22 18  1  0  0  0  0
M  END
>  <ID> (9146037)
9146037

>  <Supplier> (9146037)
ChemBridge

>  <clogP> (9146037)
2.715000000000000e+000

>  <RB> (9146037)
5

>  <tPSA> (9146037)
7.945999999999999e+001

>  <Hacc> (9146037)
3

>  <Hdon> (9146037)
3

>  <LogSw> (9146037)
-3.993000000000000e+000

>  <Group> (9146037)
2

$$$$
7785109
  -ISIS-  03310818272D

 27 29  0  0  0  0  0  0  0  0999 V2000
    4.2292    1.9625    0.0000 N   0  0  3  0  0  0  0  0  0  0  0  0
    4.4792    2.7458    0.0000 C   0  0  0  0  0  0  0  0  0  0  0  0
    5.3042    2.7458    0.0000 N   0  0  0  0  0  0  0  0  0  0  0  0
    4.9042    1.4750    0.0000 C   0  0  0  0  0  0  0  0  0  0  0  0
    5.5667    1.9583    0.0000 N   0  0  0  0  0  0  0  0  0  0  0  0
    3.9917    3.4208    0.0000 C   0  0  0  0  0  0  0  0  0  0  0  0
    4.9042    0.6500    0.0000 S   0  0  0  0  0  0  0  0  0  0  0  0
    3.2125    0.4875    0.0000 C   0  0  0  0  0  0  0  0  0  0  0  0
    2.4917    0.0708    0.0000 N   0  0  0  0  0  0  0  0  0  0  0  0
    3.1667    3.3208    0.0000 C   0  0  0  0  0  0  0  0  0  0  0  0
    3.4417    1.7083    0.0000 C   0  0  0  0  0  0  0  0  0  0  0  0
    3.2042    1.3208    0.0000 O   0  0  0  0  0  0  0  0  0  0  0  0
    3.9292    0.0750    0.0000 C   0  0  0  0  0  0  0  0  0  0  0  0
    2.8250    2.2708    0.0000 C   0  0  0  0  0  0  0  0  0  0  0  0
    2.0417    2.0083    0.0000 C   0  0  0  0  0  0  0  0  0  0  0  0
    2.4917   -0.7542    0.0000 C   0  0  0  0  0  0  0  0  0  0  0  0
    2.4917   -2.4167    0.0000 C   0  0  0  0  0  0  0  0  0  0  0  0
    2.6875    3.9958    0.0000 C   0  0  0  0  0  0  0  0  0  0  0  0
    2.4917   -3.2417    0.0000 I   0  0  0  0  0  0  0  0  0  0  0  0
    1.7792   -1.1750    0.0000 C   0  0  0  0  0  0  0  0  0  0  0  0
    3.2042   -1.1750    0.0000 C   0  0  0  0  0  0  0  0  0  0  0  0
    3.2042   -2.0042    0.0000 C   0  0  0  0  0  0  0  0  0  0  0  0
    1.7792   -2.0042    0.0000 C   0  0  0  0  0  0  0  0  0  0  0  0
    4.3292    4.1542    0.0000 C   0  0  0  0  0  0  0  0  0  0  0  0
    3.8417    4.8292    0.0000 C   0  0  0  0  0  0  0  0  0  0  0  0
    3.0167    4.7417    0.0000 C   0  0  0  0  0  0  0  0  0  0  0  0
    1.8542    3.9083    0.0000 C   0  0  0  0  0  0  0  0  0  0  0  0
  2  1  1  0  0  0  0
  3  2  2  0  0  0  0
  4  1  1  0  0  0  0
  5  4  2  0  0  0  0
  6  2  1  0  0  0  0
  7  4  1  0  0  0  0
  8 13  1  0  0  0  0
  9  8  1  0  0  0  0
 10  6  2  0  0  0  0
 11  1  1  0  0  0  0
 12  8  2  0  0  0  0
 13  7  1  0  0  0  0
 14 11  1  0  0  0  0
 15 14  2  0  0  0  0
 16  9  1  0  0  0  0
 17 22  2  0  0  0  0
 18 10  1  0  0  0  0
 19 17  1  0  0  0  0
 20 16  1  0  0  0  0
 21 16  2  0  0  0  0
 22 21  1  0  0  0  0
 23 20  2  0  0  0  0
 24  6  1  0  0  0  0
 25 24  2  0  0  0  0
 26 25  1  0  0  0  0
 27 18  1  0  0  0  0
  5  3  1  0  0  0  0
 26 18  2  0  0  0  0
 17 23  1  0  0  0  0
M  END
>  <ID> (7785109)
7785109

>  <Supplier> (7785109)
ChemBridge

>  <clogP> (7785109)
4.890000000000000e+000

>  <RB> (7785109)
7

>  <tPSA> (7785109)
5.981000000000002e+001

>  <Hacc> (7785109)
3

>  <Hdon> (7785109)
1

>  <LogSw> (7785109)
-6.950000000000000e+000

>  <Group> (7785109)
1

>  <Core> (7785109)
009

$$$$
6955155
  -ISIS-  03310818242D

 20 21  0  0  0  0  0  0  0  0999 V2000
    2.2875    0.4333    0.0000 S   0  0  3  0  0  0  0  0  0  0  0  0
   -3.0125   -0.6042    0.0000 C   0  0  0  0  0  0  0  0  0  0  0  0
   -4.2208   -0.6000    0.0000 C   0  0  3  0  0  0  0  0  0  0  0  0
    1.0875    0.4333    0.0000 C   0  0  0  0  0  0  0  0  0  0  0  0
    3.4500    0.4333    0.0000 N   0  0  3  0  0  0  0  0  0  0  0  0
   -5.2500   -1.1875    0.0000 C   0  0  0  0  0  0  0  0  0  0  0  0
   -5.2333   -0.0042    0.0000 C   0  0  0  0  0  0  0  0  0  0  0  0
   -2.4208    0.4333    0.0000 N   0  0  0  0  0  0  0  0  0  0  0  0
    2.2875   -0.7375    0.0000 O   0  0  0  0  0  0  0  0  0  0  0  0
    2.2875    1.6208    0.0000 O   0  0  0  0  0  0  0  0  0  0  0  0
   -2.4333   -1.6167    0.0000 O   0  0  0  0  0  0  0  0  0  0  0  0
    0.5042   -0.5667    0.0000 C   0  0  0  0  0  0  0  0  0  0  0  0
    0.5042    1.4500    0.0000 C   0  0  0  0  0  0  0  0  0  0  0  0
   -1.2458    0.4333    0.0000 C   0  0  0  0  0  0  0  0  0  0  0  0
   -0.6625   -0.5667    0.0000 C   0  0  0  0  0  0  0  0  0  0  0  0
   -0.6958    1.4500    0.0000 C   0  0  0  0  0  0  0  0  0  0  0  0
    4.0375    1.4500    0.0000 C   0  0  0  0  0  0  0  0  0  0  0  0
    4.0667   -0.6000    0.0000 C   0  0  0  0  0  0  0  0  0  0  0  0
    5.2500    1.4500    0.0000 C   0  0  0  0  0  0  0  0  0  0  0  0
    5.2500   -0.6000    0.0000 C   0  0  0  0  0  0  0  0  0  0  0  0
  2  8  1  0  0  0  0
  3  2  1  0  0  0  0
  4  1  1  0  0  0  0
  5  1  1  0  0  0  0
  6  3  1  0  0  0  0
  7  3  1  0  0  0  0
  8 14  1  0  0  0  0
  9  1  2  0  0  0  0
 10  1  2  0  0  0  0
 11  2  2  0  0  0  0
 12  4  1  0  0  0  0
 13  4  2  0  0  0  0
 14 16  2  0  0  0  0
 15 12  2  0  0  0  0
 16 13  1  0  0  0  0
 17  5  1  0  0  0  0
 18  5  1  0  0  0  0
 19 17  1  0  0  0  0
 20 18  1  0  0  0  0
 15 14  1  0  0  0  0
  6  7  1  0  0  0  0
M  END
>  <ID> (6955155)
6955155

>  <Supplier> (6955155)
ChemBridge

>  <clogP> (6955155)
2.220000000000000e+000

>  <RB> (6955155)
3

>  <tPSA> (6955155)
6.647999999999998e+001

>  <Hacc> (6955155)
4

>  <Hdon> (6955155)
1

>  <LogSw> (6955155)
-3.258000000000000e+000

>  <Group> (6955155)
3

>  <Core> (6955155)
234

$$$$
9146032
  -ISIS-  03310818292D

 21 21  0  0  0  0  0  0  0  0999 V2000
    2.4167    2.2250    0.0000 C   0  0  0  0  0  0  0  0  0  0  0  0
    1.7667    1.8500    0.0000 N   0  0  0  0  0  0  0  0  0  0  0  0
    5.6667    1.8500    0.0000 C   0  0  0  0  0  0  0  0  0  0  0  0
    1.1167    2.2250    0.0000 C   0  0  0  0  0  0  0  0  0  0  0  0
    3.0667    1.8500    0.0000 N   0  0  0  0  0  0  0  0  0  0  0  0
    5.0167    2.2250    0.0000 C   0  0  0  0  0  0  0  0  0  0  0  0
    2.4167    2.9833    0.0000 S   0  0  0  0  0  0  0  0  0  0  0  0
    4.3667    1.8500    0.0000 C   0  0  0  0  0  0  0  0  0  0  0  0
    3.7167    2.2250    0.0000 C   0  0  0  0  0  0  0  0  0  0  0  0
    5.6667    1.1000    0.0000 O   0  0  0  0  0  0  0  0  0  0  0  0
    1.1167    2.9833    0.0000 O   0  0  0  0  0  0  0  0  0  0  0  0
    6.3167    2.2250    0.0000 N   0  0  0  0  0  0  0  0  0  0  0  0
    5.0167    2.9833    0.0000 C   0  0  0  0  0  0  0  0  0  0  0  0
    4.3667    3.3583    0.0000 C   0  0  0  0  0  0  0  0  0  0  0  0
    8.2625    1.8500    0.0000 O   0  0  0  0  0  0  0  0  0  0  0  0
    0.4667    1.8500    0.0000 C   0  0  0  0  0  0  0  0  0  0  0  0
    3.7167    2.9833    0.0000 C   0  0  0  0  0  0  0  0  0  0  0  0
    6.9667    1.8500    0.0000 C   0  0  0  0  0  0  0  0  0  0  0  0
    7.6167    2.2250    0.0000 C   0  0  0  0  0  0  0  0  0  0  0  0
    8.9125    2.2250    0.0000 C   0  0  0  0  0  0  0  0  0  0  0  0
   -0.1833    2.2250    0.0000 C   0  0  0  0  0  0  0  0  0  0  0  0
  2  1  1  0  0  0  0
  3  6  1  0  0  0  0
  4  2  1  0  0  0  0
  5  1  1  0  0  0  0
  6  8  2  0  0  0  0
  7  1  2  0  0  0  0
  8  9  1  0  0  0  0
  9  5  1  0  0  0  0
 10  3  2  0  0  0  0
 11  4  2  0  0  0  0
 12  3  1  0  0  0  0
 13 14  2  0  0  0  0
 14 17  1  0  0  0  0
 15 19  1  0  0  0  0
 16  4  1  0  0  0  0
 17  9  2  0  0  0  0
 18 12  1  0  0  0  0
 19 18  1  0  0  0  0
 20 15  1  0  0  0  0
 21 16  1  0  0  0  0
 13  6  1  0  0  0  0
M  END
>  <ID> (9146032)
9146032

>  <Supplier> (9146032)
ChemBridge

>  <clogP> (9146032)
6.090000000000000e-001

>  <RB> (9146032)
4

>  <tPSA> (9146032)
7.945999999999999e+001

>  <Hacc> (9146032)
3

>  <Hdon> (9146032)
3

>  <LogSw> (9146032)
-1.976000000000000e+000

>  <Group> (9146032)
2

$$$$
9146033
  -ISIS-  03310818292D

 25 27  0  0  0  0  0  0  0  0999 V2000
    6.3625    0.9708    0.0000 C   0  0  0  0  0  0  0  0  0  0  0  0
    5.9167    1.5708    0.0000 N   0  0  0  0  0  0  0  0  0  0  0  0
    5.9167    0.3583    0.0000 N   0  0  3  0  0  0  0  0  0  0  0  0
    5.2042    1.3458    0.0000 C   0  0  0  0  0  0  0  0  0  0  0  0
    5.2042    0.5958    0.0000 C   0  0  0  0  0  0  0  0  0  0  0  0
    2.6042    1.3458    0.0000 C   0  0  0  0  0  0  0  0  0  0  0  0
    3.2542    1.7208    0.0000 N   0  0  0  0  0  0  0  0  0  0  0  0
    7.1125    0.9708    0.0000 C   0  0  0  0  0  0  0  0  0  0  0  0
    4.5542    1.7208    0.0000 C   0  0  0  0  0  0  0  0  0  0  0  0
    7.4875    1.6208    0.0000 N   0  0  3  0  0  0  0  0  0  0  0  0
    4.5542    0.2208    0.0000 C   0  0  0  0  0  0  0  0  0  0  0  0
    3.9042    1.3458    0.0000 C   0  0  0  0  0  0  0  0  0  0  0  0
    2.6042    0.5958    0.0000 O   0  0  0  0  0  0  0  0  0  0  0  0
    8.2375    2.9125    0.0000 O   0  0  0  0  0  0  0  0  0  0  0  0
    1.9542    1.7208    0.0000 C   0  0  3  0  0  0  0  0  0  0  0  0
    3.9042    0.5958    0.0000 C   0  0  0  0  0  0  0  0  0  0  0  0
    6.1542   -0.3542    0.0000 C   0  0  0  0  0  0  0  0  0  0  0  0
    7.1125    2.2708    0.0000 C   0  0  0  0  0  0  0  0  0  0  0  0
    8.2375    1.6208    0.0000 C   0  0  0  0  0  0  0  0  0  0  0  0
    8.6125    2.2708    0.0000 C   0  0  0  0  0  0  0  0  0  0  0  0
    7.4875    2.9125    0.0000 C   0  0  0  0  0  0  0  0  0  0  0  0
    1.3042    1.3458    0.0000 C   0  0  0  0  0  0  0  0  0  0  0  0
    1.9542    2.4708    0.0000 C   0  0  0  0  0  0  0  0  0  0  0  0
    5.6500   -0.9125    0.0000 C   0  0  0  0  0  0  0  0  0  0  0  0
    5.8792   -1.6250    0.0000 C   0  0  0  0  0  0  0  0  0  0  0  0
  2  1  2  0  0  0  0
  3  1  1  0  0  0  0
  4  2  1  0  0  0  0
  5  3  1  0  0  0  0
  6  7  1  0  0  0  0
  7 12  1  0  0  0  0
  8  1  1  0  0  0  0
  9  4  1  0  0  0  0
 10  8  1  0  0  0  0
 11  5  1  0  0  0  0
 12  9  2  0  0  0  0
 13  6  2  0  0  0  0
 14 20  1  0  0  0  0
 15  6  1  0  0  0  0
 16 11  2  0  0  0  0
 17  3  1  0  0  0  0
 18 10  1  0  0  0  0
 19 10  1  0  0  0  0
 20 19  1  0  0  0  0
 21 18  1  0  0  0  0
 22 15  1  0  0  0  0
 23 15  1  0  0  0  0
 24 17  1  0  0  0  0
 25 24  1  0  0  0  0
  5  4  2  0  0  0  0
 21 14  1  0  0  0  0
 12 16  1  0  0  0  0
M  END
>  <ID> (9146033)
9146033

>  <Supplier> (9146033)
ChemBridge

>  <clogP> (9146033)
2.873000000000000e+000

>  <RB> (9146033)
3

>  <tPSA> (9146033)
5.939000000000003e+001

>  <Hacc> (9146033)
4

>  <Hdon> (9146033)
1

>  <LogSw> (9146033)
-4.164999999999996e+000

>  <Group> (9146033)
2

>  <Core> (9146033)
137

$$$$
9146030
  -ISIS-  03310818292D

 32 35  0  0  0  0  0  0  0  0999 V2000
    4.4625    2.3958    0.0000 C   0  0  0  0  0  0  0  0  0  0  0  0
    4.8375    1.7375    0.0000 N   0  0  0  0  0  0  0  0  0  0  0  0
    4.8375    3.0458    0.0000 N   0  0  0  0  0  0  0  0  0  0  0  0
    5.9625    2.3958    0.0000 N   0  0  0  0  0  0  0  0  0  0  0  0
    5.5875    1.7375    0.0000 C   0  0  0  0  0  0  0  0  0  0  0  0
    5.5875    3.0458    0.0000 C   0  0  0  0  0  0  0  0  0  0  0  0
    8.9625    3.6875    0.0000 C   0  0  0  0  0  0  0  0  0  0  0  0
    1.4625    1.0875    0.0000 C   0  0  3  0  0  0  0  0  0  0  0  0
    8.2125    3.6875    0.0000 N   0  0  3  0  0  0  0  0  0  0  0  0
    9.3375    3.0458    0.0000 C   0  0  0  0  0  0  0  0  0  0  0  0
    6.7125    3.6875    0.0000 N   0  0  3  0  0  0  0  0  0  0  0  0
    2.2125    1.0875    0.0000 C   0  0  0  0  0  0  0  0  0  0  0  0
    3.7125    2.3958    0.0000 N   0  0  0  0  0  0  0  0  0  0  0  0
    9.0292    2.3583    0.0000 O   0  0  0  0  0  0  0  0  0  0  0  0
    5.9625    3.6875    0.0000 C   0  0  0  0  0  0  0  0  0  0  0  0
    9.3375    4.3292    0.0000 O   0  0  0  0  0  0  0  0  0  0  0  0
    2.5875    1.7375    0.0000 C   0  0  0  0  0  0  0  0  0  0  0  0
   10.0792    2.9583    0.0000 C   0  0  0  0  0  0  0  0  0  0  0  0
    7.8375    4.3292    0.0000 C   0  0  0  0  0  0  0  0  0  0  0  0
    7.8375    3.0458    0.0000 C   0  0  0  0  0  0  0  0  0  0  0  0
    3.3375    1.7375    0.0000 C   0  0  0  0  0  0  0  0  0  0  0  0
    9.5875    1.8500    0.0000 C   0  0  0  0  0  0  0  0  0  0  0  0
   10.2375    2.2250    0.0000 C   0  0  0  0  0  0  0  0  0  0  0  0
    1.2667    0.3625    0.0000 F   0  0  0  0  0  0  0  0  0  0  0  0
    1.5292    1.8375    0.0000 F   0  0  0  0  0  0  0  0  0  0  0  0
    0.7250    1.2208    0.0000 F   0  0  0  0  0  0  0  0  0  0  0  0
    5.9625    1.0875    0.0000 N   0  0  0  0  0  0  0  0  0  0  0  0
    7.0875    4.3292    0.0000 C   0  0  0  0  0  0  0  0  0  0  0  0
    7.0875    3.0458    0.0000 C   0  0  0  0  0  0  0  0  0  0  0  0
    2.5875    0.4375    0.0000 C   0  0  0  0  0  0  0  0  0  0  0  0
    3.3375    0.4375    0.0000 C   0  0  0  0  0  0  0  0  0  0  0  0
    3.7125    1.0875    0.0000 C   0  0  0  0  0  0  0  0  0  0  0  0
  2  1  1  0  0  0  0
  3  1  2  0  0  0  0
  4  6  2  0  0  0  0
  5  2  2  0  0  0  0
  6  3  1  0  0  0  0
  7  9  1  0  0  0  0
  8 12  1  0  0  0  0
  9 20  1  0  0  0  0
 10  7  1  0  0  0  0
 11 15  1  0  0  0  0
 12 17  1  0  0  0  0
 13  1  1  0  0  0  0
 14 10  1  0  0  0  0
 15  6  1  0  0  0  0
 16  7  2  0  0  0  0
 17 21  2  0  0  0  0
 18 10  2  0  0  0  0
 19 28  1  0  0  0  0
 20 29  1  0  0  0  0
 21 13  1  0  0  0  0
 22 14  1  0  0  0  0
 23 18  1  0  0  0  0
 24  8  1  0  0  0  0
 25  8  1  0  0  0  0
 26  8  1  0  0  0  0
 27  5  1  0  0  0  0
 28 11  1  0  0  0  0
 29 11  1  0  0  0  0
 30 31  1  0  0  0  0
 31 32  2  0  0  0  0
 32 21  1  0  0  0  0
  5  4  1  0  0  0  0
 30 12  2  0  0  0  0
 19  9  1  0  0  0  0
 22 23  2  0  0  0  0
M  END
>  <ID> (9146030)
9146030

>  <Supplier> (9146030)
ChemBridge

>  <clogP> (9146030)
2.747000000000000e+000

>  <RB> (9146030)
5

>  <tPSA> (9146030)
1.134100000000000e+002

>  <Hacc> (9146030)
6

>  <Hdon> (9146030)
2

>  <LogSw> (9146030)
-4.807000000000000e+000

>  <Group> (9146030)
2

>  <Core> (9146030)
426

$$$$
7250318
  -ISIS-  03310818262D

 26 28  0  0  0  0  0  0  0  0999 V2000
    0.1500    0.7625    0.0000 C   0  0  0  0  0  0  0  0  0  0  0  0
   -2.4333    0.7625    0.0000 C   0  0  0  0  0  0  0  0  0  0  0  0
   -3.0708    0.3833    0.0000 N   0  0  3  0  0  0  0  0  0  0  0  0
    0.1500    1.5000    0.0000 N   0  0  3  0  0  0  0  0  0  0  0  0
   -1.1500    0.7625    0.0000 N   0  0  0  0  0  0  0  0  0  0  0  0
   -1.7958    0.4000    0.0000 C   0  0  0  0  0  0  0  0  0  0  0  0
   -0.5125    0.4000    0.0000 C   0  0  0  0  0  0  0  0  0  0  0  0
   -2.4333    1.5000    0.0000 O   0  0  0  0  0  0  0  0  0  0  0  0
    0.7875    0.4000    0.0000 O   0  0  0  0  0  0  0  0  0  0  0  0
   -3.0500   -0.3667    0.0000 C   0  0  3  0  0  0  0  0  0  0  0  0
   -0.5000    1.8708    0.0000 C   0  0  3  0  0  0  0  0  0  0  0  0
   -3.7208    0.7500    0.0000 C   0  0  0  0  0  0  0  0  0  0  0  0
    0.8000    1.8708    0.0000 C   0  0  0  0  0  0  0  0  0  0  0  0
   -0.5125   -0.3375    0.0000 C   0  0  0  0  0  0  0  0  0  0  0  0
   -1.7958   -0.3375    0.0000 C   0  0  0  0  0  0  0  0  0  0  0  0
   -1.1500   -0.7167    0.0000 C   0  0  0  0  0  0  0  0  0  0  0  0
   -2.3958   -0.7375    0.0000 C   0  0  0  0  0  0  0  0  0  0  0  0
   -1.1500    1.5000    0.0000 C   0  0  0  0  0  0  0  0  0  0  0  0
   -3.6958   -0.7500    0.0000 C   0  0  0  0  0  0  0  0  0  0  0  0
   -0.5000    2.6125    0.0000 C   0  0  0  0  0  0  0  0  0  0  0  0
   -4.3625    0.3708    0.0000 C   0  0  0  0  0  0  0  0  0  0  0  0
    0.8000    2.6125    0.0000 C   0  0  0  0  0  0  0  0  0  0  0  0
   -2.3833   -1.5000    0.0000 C   0  0  0  0  0  0  0  0  0  0  0  0
   -1.8000    1.8708    0.0000 C   0  0  0  0  0  0  0  0  0  0  0  0
   -4.3500   -0.3792    0.0000 C   0  0  0  0  0  0  0  0  0  0  0  0
    0.1500    2.9833    0.0000 C   0  0  0  0  0  0  0  0  0  0  0  0
  2  6  1  0  0  0  0
  3  2  1  0  0  0  0
  4  1  1  0  0  0  0
  5  7  1  0  0  0  0
  6  5  2  0  0  0  0
  7  1  1  0  0  0  0
  8  2  2  0  0  0  0
  9  1  2  0  0  0  0
 10  3  1  0  0  0  0
 11  4  1  0  0  0  0
 12  3  1  0  0  0  0
 13  4  1  0  0  0  0
 14  7  2  0  0  0  0
 15 16  2  0  0  0  0
 16 14  1  0  0  0  0
 17 10  1  0  0  0  0
 18 11  1  0  0  0  0
 19 10  1  0  0  0  0
 20 11  1  0  0  0  0
 21 12  1  0  0  0  0
 22 13  1  0  0  0  0
 23 17  1  0  0  0  0
 24 18  1  0  0  0  0
 25 21  1  0  0  0  0
 26 22  1  0  0  0  0
 15  6  1  0  0  0  0
 26 20  1  0  0  0  0
 25 19  1  0  0  0  0
M  END
>  <ID> (7250318)
7250318

>  <Supplier> (7250318)
ChemBridge

>  <clogP> (7250318)
2.770000000000000e+000

>  <RB> (7250318)
2

>  <tPSA> (7250318)
5.351000000000000e+001

>  <Hacc> (7250318)
3

>  <Hdon> (7250318)
0

>  <LogSw> (7250318)
-4.172000000000000e+000

>  <Group> (7250318)
2

$$$$
7785106
  -ISIS-  03310818272D

 22 22  0  0  0  0  0  0  0  0999 V2000
    5.9417   -7.2875    0.0000 S   0  0  3  0  0  0  0  0  0  0  0  0
    5.9667   -6.4625    0.0000 N   0  0  3  0  0  0  0  0  0  0  0  0
    5.2625   -6.0375    0.0000 C   0  0  0  0  0  0  0  0  0  0  0  0
    5.2750   -5.2125    0.0000 C   0  0  0  0  0  0  0  0  0  0  0  0
    6.6792   -6.0500    0.0000 C   0  0  0  0  0  0  0  0  0  0  0  0
    7.4000   -6.4625    0.0000 C   0  0  0  0  0  0  0  0  0  0  0  0
    6.3167   -8.0042    0.0000 O   0  0  0  0  0  0  0  0  0  0  0  0
    6.7667   -7.3167    0.0000 O   0  0  0  0  0  0  0  0  0  0  0  0
    4.5667   -4.7917    0.0000 C   0  0  0  0  0  0  0  0  0  0  0  0
    7.4000   -7.2875    0.0000 O   0  0  0  0  0  0  0  0  0  0  0  0
    5.9875   -4.7917    0.0000 Cl  0  0  0  0  0  0  0  0  0  0  0  0
    8.1125   -6.0500    0.0000 N   0  0  0  0  0  0  0  0  0  0  0  0
    5.2167   -7.6792    0.0000 C   0  0  0  0  0  0  0  0  0  0  0  0
    4.5417   -6.4417    0.0000 C   0  0  0  0  0  0  0  0  0  0  0  0
    4.5667   -3.9625    0.0000 Cl  0  0  0  0  0  0  0  0  0  0  0  0
    8.8250   -6.4542    0.0000 C   0  0  0  0  0  0  0  0  0  0  0  0
    3.8375   -6.0167    0.0000 C   0  0  0  0  0  0  0  0  0  0  0  0
    3.8417   -5.1917    0.0000 C   0  0  0  0  0  0  0  0  0  0  0  0
    9.5292   -6.0500    0.0000 C   0  0  0  0  0  0  0  0  0  0  0  0
   10.2417   -6.4625    0.0000 C   0  0  3  0  0  0  0  0  0  0  0  0
   10.9542   -6.0542    0.0000 C   0  0  0  0  0  0  0  0  0  0  0  0
   10.2417   -7.2792    0.0000 C   0  0  0  0  0  0  0  0  0  0  0  0
  2  1  1  0  0  0  0
  3  2  1  0  0  0  0
  4  3  2  0  0  0  0
  5  2  1  0  0  0  0
  6  5  1  0  0  0  0
  7  1  2  0  0  0  0
  8  1  2  0  0  0  0
  9  4  1  0  0  0  0
 10  6  2  0  0  0  0
 11  4  1  0  0  0  0
 12  6  1  0  0  0  0
 13  1  1  0  0  0  0
 14  3  1  0  0  0  0
 15  9  1  0  0  0  0
 16 12  1  0  0  0  0
 17 14  2  0  0  0  0
 18 17  1  0  0  0  0
 19 16  1  0  0  0  0
 20 19  1  0  0  0  0
 21 20  1  0  0  0  0
 22 20  1  0  0  0  0
  9 18  2  0  0  0  0
M  END
>  <ID> (7785106)
7785106

>  <Supplier> (7785106)
ChemBridge

>  <clogP> (7785106)
3.050000000000000e+000

>  <RB> (7785106)
5

>  <tPSA> (7785106)
6.647999999999998e+001

>  <Hacc> (7785106)
3

>  <Hdon> (7785106)
1

>  <LogSw> (7785106)
-4.483000000000001e+000

>  <Group> (7785106)
2

>  <Core> (7785106)
084

$$$$
9146038
  -ISIS-  03310818292D

 27 31  0  0  0  0  0  0  0  0999 V2000
    6.6792    1.4583    0.0000 N   0  0  3  0  0  0  0  0  0  0  0  0
    6.6792    0.7083    0.0000 C   0  0  0  0  0  0  0  0  0  0  0  0
    6.0292    1.8333    0.0000 C   0  0  0  0  0  0  0  0  0  0  0  0
    5.3792    1.4583    0.0000 C   0  0  0  0  0  0  0  0  0  0  0  0
    7.3917    1.6875    0.0000 C   0  0  0  0  0  0  0  0  0  0  0  0
    7.3917    0.4750    0.0000 S   0  0  0  0  0  0  0  0  0  0  0  0
    6.0292    0.3333    0.0000 N   0  0  0  0  0  0  0  0  0  0  0  0
    7.8292    1.0833    0.0000 C   0  0  0  0  0  0  0  0  0  0  0  0
    5.3792    0.7083    0.0000 C   0  0  0  0  0  0  0  0  0  0  0  0
    4.7292    1.8333    0.0000 C   0  0  0  0  0  0  0  0  0  0  0  0
    1.4792    1.4583    0.0000 C   0  0  0  0  0  0  0  0  0  0  0  0
    4.0792    1.4583    0.0000 N   0  0  0  0  0  0  0  0  0  0  0  0
    6.0292    2.5833    0.0000 O   0  0  0  0  0  0  0  0  0  0  0  0
    1.4792    0.7083    0.0000 C   0  0  0  0  0  0  0  0  0  0  0  0
    0.7667    1.6875    0.0000 O   0  0  0  0  0  0  0  0  0  0  0  0
    0.7667    0.4750    0.0000 O   0  0  0  0  0  0  0  0  0  0  0  0
    0.3292    1.0833    0.0000 C   0  0  0  0  0  0  0  0  0  0  0  0
    4.7292    2.5833    0.0000 O   0  0  0  0  0  0  0  0  0  0  0  0
    2.1292    1.8333    0.0000 C   0  0  0  0  0  0  0  0  0  0  0  0
    2.1292    0.3333    0.0000 C   0  0  0  0  0  0  0  0  0  0  0  0
    2.7792    1.4583    0.0000 C   0  0  0  0  0  0  0  0  0  0  0  0
    3.4292    1.8333    0.0000 C   0  0  0  0  0  0  0  0  0  0  0  0
    7.7000    2.3708    0.0000 C   0  0  0  0  0  0  0  0  0  0  0  0
    2.7792    0.7083    0.0000 C   0  0  0  0  0  0  0  0  0  0  0  0
    8.5792    1.1583    0.0000 C   0  0  0  0  0  0  0  0  0  0  0  0
    8.4417    2.4583    0.0000 C   0  0  0  0  0  0  0  0  0  0  0  0
    8.8875    1.8458    0.0000 C   0  0  0  0  0  0  0  0  0  0  0  0
  2  1  1  0  0  0  0
  3  1  1  0  0  0  0
  4  3  1  0  0  0  0
  5  1  1  0  0  0  0
  6  2  1  0  0  0  0
  7  2  2  0  0  0  0
  8  5  2  0  0  0  0
  9  4  2  0  0  0  0
 10  4  1  0  0  0  0
 11 19  2  0  0  0  0
 12 10  1  0  0  0  0
 13  3  2  0  0  0  0
 14 20  2  0  0  0  0
 15 11  1  0  0  0  0
 16 14  1  0  0  0  0
 17 15  1  0  0  0  0
 18 10  2  0  0  0  0
 19 21  1  0  0  0  0
 20 24  1  0  0  0  0
 21 22  1  0  0  0  0
 22 12  1  0  0  0  0
 23  5  1  0  0  0  0
 24 21  2  0  0  0  0
 25  8  1  0  0  0  0
 26 23  1  0  0  0  0
 27 26  1  0  0  0  0
  6  8  1  0  0  0  0
  9  7  1  0  0  0  0
 25 27  1  0  0  0  0
 14 11  1  0  0  0  0
 17 16  1  0  0  0  0
M  END
>  <ID> (9146038)
9146038

>  <Supplier> (9146038)
ChemBridge

>  <clogP> (9146038)
1.943000000000000e+000

>  <RB> (9146038)
3

>  <tPSA> (9146038)
8.193000000000001e+001

>  <Hacc> (9146038)
5

>  <Hdon> (9146038)
1

>  <LogSw> (9146038)
-3.655000000000000e+000

>  <Group> (9146038)
2

>  <Core> (9146038)
127

$$$$
6955159
  -ISIS-  03310818242D

 29 31  0  0  0  0  0  0  0  0999 V2000
    1.7792   -1.3125    0.0000 S   0  0  3  0  0  0  0  0  0  0  0  0
    2.4917   -0.8917    0.0000 N   0  0  3  0  0  0  0  0  0  0  0  0
    8.2000   -0.0417    0.0000 C   0  0  3  0  0  0  0  0  0  0  0  0
    4.6292    0.3583    0.0000 C   0  0  0  0  0  0  0  0  0  0  0  0
    1.0667   -1.7292    0.0000 C   0  0  0  0  0  0  0  0  0  0  0  0
    5.3417   -0.0542    0.0000 N   0  0  0  0  0  0  0  0  0  0  0  0
    7.4792    0.3708    0.0000 C   0  0  0  0  0  0  0  0  0  0  0  0
    2.1875   -2.0250    0.0000 O   0  0  0  0  0  0  0  0  0  0  0  0
    1.3625   -0.5917    0.0000 O   0  0  0  0  0  0  0  0  0  0  0  0
    3.9125   -0.0625    0.0000 C   0  0  3  0  0  0  0  0  0  0  0  0
    3.2042   -1.3042    0.0000 C   0  0  0  0  0  0  0  0  0  0  0  0
    2.4792   -0.0667    0.0000 C   0  0  0  0  0  0  0  0  0  0  0  0
    6.0542    0.3625    0.0000 C   0  0  0  0  0  0  0  0  0  0  0  0
    6.7667   -0.0500    0.0000 C   0  0  0  0  0  0  0  0  0  0  0  0
    4.6250    1.1833    0.0000 O   0  0  0  0  0  0  0  0  0  0  0  0
    8.9917    0.1708    0.0000 F   0  0  0  0  0  0  0  0  0  0  0  0
    7.9792   -0.8417    0.0000 F   0  0  0  0  0  0  0  0  0  0  0  0
    8.9917   -0.2542    0.0000 F   0  0  0  0  0  0  0  0  0  0  0  0
    3.1917    0.3458    0.0000 C   0  0  0  0  0  0  0  0  0  0  0  0
    3.9167   -0.8875    0.0000 C   0  0  0  0  0  0  0  0  0  0  0  0
    0.3500   -1.3167    0.0000 C   0  0  0  0  0  0  0  0  0  0  0  0
    1.0667   -2.5542    0.0000 C   0  0  0  0  0  0  0  0  0  0  0  0
   -0.3625   -2.5542    0.0000 C   0  0  0  0  0  0  0  0  0  0  0  0
   -0.3625   -1.7292    0.0000 C   0  0  0  0  0  0  0  0  0  0  0  0
    0.3500   -2.9667    0.0000 C   0  0  0  0  0  0  0  0  0  0  0  0
   -1.0833   -2.9667    0.0000 F   0  0  0  0  0  0  0  0  0  0  0  0
    7.4792    1.1958    0.0000 C   0  0  0  0  0  0  0  0  0  0  0  0
    6.7542    1.6083    0.0000 C   0  0  0  0  0  0  0  0  0  0  0  0
    6.0500    1.1833    0.0000 C   0  0  0  0  0  0  0  0  0  0  0  0
  2  1  1  0  0  0  0
  3  7  1  0  0  0  0
  4 10  1  0  0  0  0
  5  1  1  0  0  0  0
  6  4  1  0  0  0  0
  7 14  1  0  0  0  0
  8  1  2  0  0  0  0
  9  1  2  0  0  0  0
 10 19  1  0  0  0  0
 11  2  1  0  0  0  0
 12  2  1  0  0  0  0
 13  6  1  0  0  0  0
 14 13  2  0  0  0  0
 15  4  2  0  0  0  0
 16  3  1  0  0  0  0
 17  3  1  0  0  0  0
 18  3  1  0  0  0  0
 19 12  1  0  0  0  0
 20 11  1  0  0  0  0
 21  5  2  0  0  0  0
 22  5  1  0  0  0  0
 23 25  1  0  0  0  0
 24 21  1  0  0  0  0
 25 22  2  0  0  0  0
 26 23  1  0  0  0  0
 27 28  1  0  0  0  0
 28 29  2  0  0  0  0
 29 13  1  0  0  0  0
 23 24  2  0  0  0  0
 10 20  1  0  0  0  0
  7 27  2  0  0  0  0
M  END
>  <ID> (6955159)
6955159

>  <Supplier> (6955159)
ChemBridge

>  <clogP> (6955159)
3.840000000000000e+000

>  <RB> (6955159)
3

>  <tPSA> (6955159)
6.647999999999998e+001

>  <Hacc> (6955159)
4

>  <Hdon> (6955159)
1

>  <LogSw> (6955159)
-5.616999999999998e+000

>  <Group> (6955159)
3

>  <Core> (6955159)
050

$$$$
7958459
  -ISIS-  03310818282D

 24 26  0  0  0  0  0  0  0  0999 V2000
    2.8542    2.5208    0.0000 N   0  0  3  0  0  0  0  0  0  0  0  0
    3.2292    1.8708    0.0000 C   0  0  0  0  0  0  0  0  0  0  0  0
    2.1250    2.3583    0.0000 N   0  0  0  0  0  0  0  0  0  0  0  0
    2.0417    1.6125    0.0000 C   0  0  0  0  0  0  0  0  0  0  0  0
    3.2292    3.1708    0.0000 C   0  0  3  0  0  0  0  0  0  0  0  0
    2.7292    1.3083    0.0000 C   0  0  0  0  0  0  0  0  0  0  0  0
    3.9792    1.8708    0.0000 N   0  0  0  0  0  0  0  0  0  0  0  0
    2.8542    3.8125    0.0000 C   0  0  3  0  0  0  0  0  0  0  0  0
    3.9792    3.1708    0.0000 C   0  0  0  0  0  0  0  0  0  0  0  0
    4.3542    2.5208    0.0000 C   0  0  3  0  0  0  0  0  0  0  0  0
    1.3917    1.2375    0.0000 C   0  0  0  0  0  0  0  0  0  0  0  0
    5.1042    2.5208    0.0000 C   0  0  0  0  0  0  0  0  0  0  0  0
    1.3917    0.4875    0.0000 O   0  0  0  0  0  0  0  0  0  0  0  0
    5.4792    1.8708    0.0000 C   0  0  0  0  0  0  0  0  0  0  0  0
    3.3875    4.3417    0.0000 F   0  0  0  0  0  0  0  0  0  0  0  0
    2.3750    4.3792    0.0000 F   0  0  0  0  0  0  0  0  0  0  0  0
    2.2417    3.3833    0.0000 F   0  0  0  0  0  0  0  0  0  0  0  0
    0.7417    1.6125    0.0000 O   0  0  0  0  0  0  0  0  0  0  0  0
    6.2292    1.8708    0.0000 C   0  0  0  0  0  0  0  0  0  0  0  0
    6.6042    1.2208    0.0000 O   0  0  0  0  0  0  0  0  0  0  0  0
    5.4792    3.1708    0.0000 C   0  0  0  0  0  0  0  0  0  0  0  0
    6.2292    3.1708    0.0000 C   0  0  0  0  0  0  0  0  0  0  0  0
    6.6042    2.5208    0.0000 C   0  0  0  0  0  0  0  0  0  0  0  0
    7.3542    1.2208    0.0000 C   0  0  0  0  0  0  0  0  0  0  0  0
  2  1  1  0  0  0  0
  3  1  1  0  0  0  0
  4  3  2  0  0  0  0
  5  1  1  0  0  0  0
  6  2  2  0  0  0  0
  7  2  1  0  0  0  0
  8  5  1  0  0  0  0
  9  5  1  0  0  0  0
 10  9  1  0  0  0  0
 11  4  1  0  0  0  0
 12 10  1  0  0  0  0
 13 11  2  0  0  0  0
 14 12  1  0  0  0  0
 15  8  1  0  0  0  0
 16  8  1  0  0  0  0
 17  8  1  0  0  0  0
 18 11  1  0  0  0  0
 19 14  2  0  0  0  0
 20 19  1  0  0  0  0
 21 12  2  0  0  0  0
 22 21  1  0  0  0  0
 23 22  2  0  0  0  0
 24 20  1  0  0  0  0
  4  6  1  0  0  0  0
 10  7  1  0  0  0  0
 19 23  1  0  0  0  0
M  END
>  <ID> (7958459)
7958459

>  <Supplier> (7958459)
ChemBridge

>  <clogP> (7958459)
2.787000000000000e+000

>  <RB> (7958459)
2

>  <tPSA> (7958459)
7.638000000000000e+001

>  <Hacc> (7958459)
4

>  <Hdon> (7958459)
2

>  <LogSw> (7958459)
-4.069000000000000e+000

>  <Group> (7958459)
2

>  <Core> (7958459)
138

$$$$
7958458
  -ISIS-  03310818282D

 36 38  0  0  0  0  0  0  0  0999 V2000
    5.5625    4.0292    0.0000 C   0  0  0  0  0  0  0  0  0  0  0  0
    4.0625    4.0292    0.0000 C   0  0  0  0  0  0  0  0  0  0  0  0
    4.4375    4.6875    0.0000 N   0  0  0  0  0  0  0  0  0  0  0  0
    5.1875    3.3958    0.0000 C   0  0  0  0  0  0  0  0  0  0  0  0
    5.1875    4.6875    0.0000 C   0  0  0  0  0  0  0  0  0  0  0  0
    4.4375    3.3958    0.0000 N   0  0  0  0  0  0  0  0  0  0  0  0
    2.1875    3.3958    0.0000 C   0  0  0  0  0  0  0  0  0  0  0  0
    1.8125    2.7458    0.0000 N   0  0  0  0  0  0  0  0  0  0  0  0
    1.0625    2.7458    0.0000 C   0  0  3  0  0  0  0  0  0  0  0  0
    6.3125    4.0292    0.0000 C   0  0  0  0  0  0  0  0  0  0  0  0
    3.3125    4.0292    0.0000 S   0  0  0  0  0  0  0  0  0  0  0  0
    0.6875    2.0958    0.0000 C   0  0  0  0  0  0  0  0  0  0  0  0
    7.0625    4.0292    0.0000 N   0  0  0  0  0  0  0  0  0  0  0  0
    2.9375    3.3958    0.0000 C   0  0  3  0  0  0  0  0  0  0  0  0
    5.5625    5.3375    0.0000 O   0  0  0  0  0  0  0  0  0  0  0  0
    5.5625    2.7458    0.0000 C   0  0  0  0  0  0  0  0  0  0  0  0
    1.8125    4.0292    0.0000 O   0  0  0  0  0  0  0  0  0  0  0  0
    1.0625    1.4458    0.0000 O   0  0  0  0  0  0  0  0  0  0  0  0
    1.0625    4.0292    0.0000 S   0  0  0  0  0  0  0  0  0  0  0  0
   -0.0625    2.0958    0.0000 O   0  0  0  0  0  0  0  0  0  0  0  0
    0.6875    3.3958    0.0000 C   0  0  0  0  0  0  0  0  0  0  0  0
    1.0625    5.3375    0.0000 C   0  0  0  0  0  0  0  0  0  0  0  0
    0.6875    4.6875    0.0000 C   0  0  0  0  0  0  0  0  0  0  0  0
    3.3125    2.7458    0.0000 C   0  0  0  0  0  0  0  0  0  0  0  0
    5.1875    2.0958    0.0000 C   0  0  0  0  0  0  0  0  0  0  0  0
    6.3125    2.7458    0.0000 C   0  0  0  0  0  0  0  0  0  0  0  0
   -0.4375    1.4458    0.0000 C   0  0  0  0  0  0  0  0  0  0  0  0
    1.8125    5.3375    0.0000 C   0  0  0  0  0  0  0  0  0  0  0  0
    0.6875    5.9792    0.0000 C   0  0  0  0  0  0  0  0  0  0  0  0
    4.0625    2.7458    0.0000 C   0  0  0  0  0  0  0  0  0  0  0  0
    6.6875    2.0958    0.0000 C   0  0  0  0  0  0  0  0  0  0  0  0
    5.5625    1.4458    0.0000 C   0  0  0  0  0  0  0  0  0  0  0  0
    1.0625    6.6375    0.0000 C   0  0  0  0  0  0  0  0  0  0  0  0
    2.1875    5.9792    0.0000 C   0  0  0  0  0  0  0  0  0  0  0  0
    1.8125    6.6375    0.0000 C   0  0  0  0  0  0  0  0  0  0  0  0
    6.3125    1.4458    0.0000 C   0  0  0  0  0  0  0  0  0  0  0  0
  2  3  1  0  0  0  0
  3  5  1  0  0  0  0
  4  1  2  0  0  0  0
  5  1  1  0  0  0  0
  6  4  1  0  0  0  0
  7 14  1  0  0  0  0
  8  7  1  0  0  0  0
  9  8  1  0  0  0  0
 10  1  1  0  0  0  0
 11  2  1  0  0  0  0
 12  9  1  0  0  0  0
 13 10  3  0  0  0  0
 14 11  1  0  0  0  0
 15  5  2  0  0  0  0
 16  4  1  0  0  0  0
 17  7  2  0  0  0  0
 18 12  2  0  0  0  0
 19 21  1  0  0  0  0
 20 12  1  0  0  0  0
 21  9  1  0  0  0  0
 22 23  1  0  0  0  0
 23 19  1  0  0  0  0
 24 14  1  0  0  0  0
 25 16  2  0  0  0  0
 26 16  1  0  0  0  0
 27 20  1  0  0  0  0
 28 22  1  0  0  0  0
 29 22  2  0  0  0  0
 30 24  1  0  0  0  0
 31 26  2  0  0  0  0
 32 25  1  0  0  0  0
 33 29  1  0  0  0  0
 34 28  2  0  0  0  0
 35 33  2  0  0  0  0
 36 31  1  0  0  0  0
  6  2  2  0  0  0  0
 36 32  2  0  0  0  0
 34 35  1  0  0  0  0
M  END
>  <ID> (7958458)
7958458

>  <Supplier> (7958458)
ChemBridge

>  <clogP> (7958458)
3.990000000000000e+000

>  <RB> (7958458)
10

>  <tPSA> (7958458)
1.249400000000000e+002

>  <Hacc> (7958458)
6

>  <Hdon> (7958458)
2

>  <LogSw> (7958458)
-6.681000000000000e+000

>  <Group> (7958458)
1

>  <Core> (7958458)
017

$$$$
9134896
  -ISIS-  03310818292D

 30 33  0  0  0  0  0  0  0  0999 V2000
    4.8875    0.6583    0.0000 S   0  0  3  0  0  0  0  0  0  0  0  0
    5.4167    1.1875    0.0000 C   0  0  0  0  0  0  0  0  0  0  0  0
    6.1542    1.0708    0.0000 C   0  0  0  0  0  0  0  0  0  0  0  0
    4.2375    1.0333    0.0000 N   0  0  3  0  0  0  0  0  0  0  0  0
    6.5000    1.7375    0.0000 C   0  0  0  0  0  0  0  0  0  0  0  0
    8.2500    2.6750    0.0000 C   0  0  0  0  0  0  0  0  0  0  0  0
    7.2417    1.8583    0.0000 C   0  0  0  0  0  0  0  0  0  0  0  0
    8.7792    2.1458    0.0000 N   0  0  0  0  0  0  0  0  0  0  0  0
    5.9667    2.2708    0.0000 S   0  0  0  0  0  0  0  0  0  0  0  0
    8.5917    3.3458    0.0000 C   0  0  0  0  0  0  0  0  0  0  0  0
    7.5042    2.5583    0.0000 N   0  0  0  0  0  0  0  0  0  0  0  0
    5.3000    1.9333    0.0000 C   0  0  0  0  0  0  0  0  0  0  0  0
    2.9417    1.7833    0.0000 N   0  0  3  0  0  0  0  0  0  0  0  0
    9.4500    2.4833    0.0000 O   0  0  0  0  0  0  0  0  0  0  0  0
    9.3292    3.2333    0.0000 C   0  0  0  0  0  0  0  0  0  0  0  0
    4.4542    0.0458    0.0000 O   0  0  0  0  0  0  0  0  0  0  0  0
    5.4625    0.1750    0.0000 O   0  0  0  0  0  0  0  0  0  0  0  0
    3.5917    0.6583    0.0000 C   0  0  0  0  0  0  0  0  0  0  0  0
    4.2375    1.7833    0.0000 C   0  0  0  0  0  0  0  0  0  0  0  0
    2.2917    2.1583    0.0000 C   0  0  0  0  0  0  0  0  0  0  0  0
    2.9417    1.0333    0.0000 C   0  0  0  0  0  0  0  0  0  0  0  0
    3.5917    2.1583    0.0000 C   0  0  0  0  0  0  0  0  0  0  0  0
    7.7125    1.2750    0.0000 O   0  0  0  0  0  0  0  0  0  0  0  0
    2.2917    2.9083    0.0000 C   0  0  0  0  0  0  0  0  0  0  0  0
    1.6417    1.7833    0.0000 C   0  0  0  0  0  0  0  0  0  0  0  0
    0.9917    2.9083    0.0000 C   0  0  0  0  0  0  0  0  0  0  0  0
    0.9917    2.1583    0.0000 C   0  0  0  0  0  0  0  0  0  0  0  0
    1.6417    3.2833    0.0000 C   0  0  0  0  0  0  0  0  0  0  0  0
    0.3417    3.2833    0.0000 F   0  0  0  0  0  0  0  0  0  0  0  0
    9.8625    3.7583    0.0000 C   0  0  0  0  0  0  0  0  0  0  0  0
  2  1  1  0  0  0  0
  3  2  1  0  0  0  0
  4  1  1  0  0  0  0
  5  3  2  0  0  0  0
  6 11  1  0  0  0  0
  7  5  1  0  0  0  0
  8  6  2  0  0  0  0
  9 12  1  0  0  0  0
 10  6  1  0  0  0  0
 11  7  1  0  0  0  0
 12  2  2  0  0  0  0
 13 22  1  0  0  0  0
 14  8  1  0  0  0  0
 15 10  2  0  0  0  0
 16  1  2  0  0  0  0
 17  1  2  0  0  0  0
 18  4  1  0  0  0  0
 19  4  1  0  0  0  0
 20 13  1  0  0  0  0
 21 18  1  0  0  0  0
 22 19  1  0  0  0  0
 23  7  2  0  0  0  0
 24 20  1  0  0  0  0
 25 20  2  0  0  0  0
 26 27  2  0  0  0  0
 27 25  1  0  0  0  0
 28 24  2  0  0  0  0
 29 26  1  0  0  0  0
 30 15  1  0  0  0  0
 21 13  1  0  0  0  0
  9  5  1  0  0  0  0
 26 28  1  0  0  0  0
 14 15  1  0  0  0  0
M  END
>  <ID> (9134896)
9134896

>  <Supplier> (9134896)
ChemBridge

>  <clogP> (9134896)
2.516000000000000e+000

>  <RB> (9134896)
4

>  <tPSA> (9134896)
9.575000000000004e+001

>  <Hacc> (9134896)
6

>  <Hdon> (9134896)
1

>  <LogSw> (9134896)
-4.632000000000000e+000

>  <Group> (9134896)
2

$$$$
7958451
  -ISIS-  03310818282D

 22 25  0  0  0  0  0  0  0  0999 V2000
    3.3875    1.6333    0.0000 C   0  0  0  0  0  0  0  0  0  0  0  0
    3.3875    0.8833    0.0000 C   0  0  0  0  0  0  0  0  0  0  0  0
    4.0375    2.0083    0.0000 C   0  0  0  0  0  0  0  0  0  0  0  0
    4.0375    0.5083    0.0000 O   0  0  0  0  0  0  0  0  0  0  0  0
    4.6875    1.6333    0.0000 C   0  0  0  0  0  0  0  0  0  0  0  0
    4.6875    0.8833    0.0000 C   0  0  0  0  0  0  0  0  0  0  0  0
    5.9875    1.6333    0.0000 C   0  0  0  0  0  0  0  0  0  0  0  0
    5.9875    0.8833    0.0000 C   0  0  0  0  0  0  0  0  0  0  0  0
    5.3375    2.0083    0.0000 C   0  0  0  0  0  0  0  0  0  0  0  0
    6.7000    0.6500    0.0000 O   0  0  0  0  0  0  0  0  0  0  0  0
    5.3375    0.5083    0.0000 C   0  0  0  0  0  0  0  0  0  0  0  0
    6.7000    1.8625    0.0000 C   0  0  0  0  0  0  0  0  0  0  0  0
    7.1417    1.2583    0.0000 C   0  0  0  0  0  0  0  0  0  0  0  0
    2.7417    2.0083    0.0000 C   0  0  0  0  0  0  0  0  0  0  0  0
    2.7417    0.5083    0.0000 O   0  0  0  0  0  0  0  0  0  0  0  0
    2.7417    2.7583    0.0000 C   0  0  0  0  0  0  0  0  0  0  0  0
    2.0917    1.6333    0.0000 C   0  0  0  0  0  0  0  0  0  0  0  0
    1.4417    2.7583    0.0000 C   0  0  0  0  0  0  0  0  0  0  0  0
    1.4417    2.0083    0.0000 C   0  0  0  0  0  0  0  0  0  0  0  0
    2.0917    3.1333    0.0000 C   0  0  0  0  0  0  0  0  0  0  0  0
    0.7917    3.1333    0.0000 Cl  0  0  0  0  0  0  0  0  0  0  0  0
    6.9292    2.5833    0.0000 C   0  0  0  0  0  0  0  0  0  0  0  0
  2  1  1  0  0  0  0
  3  1  2  0  0  0  0
  4  2  1  0  0  0  0
  5  3  1  0  0  0  0
  6  5  1  0  0  0  0
  7  9  1  0  0  0  0
  8  7  2  0  0  0  0
  9  5  2  0  0  0  0
 10  8  1  0  0  0  0
 11  6  2  0  0  0  0
 12  7  1  0  0  0  0
 13 12  2  0  0  0  0
 14  1  1  0  0  0  0
 15  2  2  0  0  0  0
 16 14  1  0  0  0  0
 17 14  2  0  0  0  0
 18 19  2  0  0  0  0
 19 17  1  0  0  0  0
 20 16  2  0  0  0  0
 21 18  1  0  0  0  0
 22 12  1  0  0  0  0
 20 18  1  0  0  0  0
  4  6  1  0  0  0  0
  8 11  1  0  0  0  0
 10 13  1  0  0  0  0
M  END
>  <ID> (7958451)
7958451

>  <Supplier> (7958451)
ChemBridge

>  <clogP> (7958451)
5.282000000000000e+000

>  <RB> (7958451)
1

>  <tPSA> (7958451)
4.335000000000000e+001

>  <Hacc> (7958451)
3

>  <Hdon> (7958451)
0

>  <LogSw> (7958451)
-5.977000000000000e+000

>  <Group> (7958451)
1

>  <Core> (7958451)
079

$$$$
7958450
  -ISIS-  03310818282D

 17 18  0  0  0  0  0  0  0  0999 V2000
    3.7667    2.4625    0.0000 N   0  0  0  0  0  0  0  0  0  0  0  0
    3.3292    1.8583    0.0000 N   0  0  3  0  0  0  0  0  0  0  0  0
    3.7667    1.2500    0.0000 C   0  0  0  0  0  0  0  0  0  0  0  0
    4.4792    1.4833    0.0000 C   0  0  0  0  0  0  0  0  0  0  0  0
    4.4792    2.2333    0.0000 C   0  0  0  0  0  0  0  0  0  0  0  0
    2.5792    1.8583    0.0000 C   0  0  0  0  0  0  0  0  0  0  0  0
    5.0917    2.6750    0.0000 C   0  0  3  0  0  0  0  0  0  0  0  0
    3.5417    0.5375    0.0000 N   0  0  0  0  0  0  0  0  0  0  0  0
    2.2042    2.5083    0.0000 C   0  0  0  0  0  0  0  0  0  0  0  0
    2.2042    1.2083    0.0000 C   0  0  0  0  0  0  0  0  0  0  0  0
    1.4542    2.5083    0.0000 C   0  0  0  0  0  0  0  0  0  0  0  0
    1.4542    1.2083    0.0000 C   0  0  0  0  0  0  0  0  0  0  0  0
    1.0792    1.8583    0.0000 C   0  0  0  0  0  0  0  0  0  0  0  0
    5.6750    2.2083    0.0000 C   0  0  0  0  0  0  0  0  0  0  0  0
    5.6125    3.2125    0.0000 C   0  0  0  0  0  0  0  0  0  0  0  0
    4.6000    3.2375    0.0000 C   0  0  0  0  0  0  0  0  0  0  0  0
    0.3292    1.8583    0.0000 C   0  0  0  0  0  0  0  0  0  0  0  0
  2  1  1  0  0  0  0
  3  2  1  0  0  0  0
  4  5  1  0  0  0  0
  5  1  2  0  0  0  0
  6  2  1  0  0  0  0
  7  5  1  0  0  0  0
  8  3  1  0  0  0  0
  9  6  2  0  0  0  0
 10  6  1  0  0  0  0
 11  9  1  0  0  0  0
 12 10  2  0  0  0  0
 13 12  1  0  0  0  0
 14  7  1  0  0  0  0
 15  7  1  0  0  0  0
 16  7  1  0  0  0  0
 17 13  1  0  0  0  0
  4  3  2  0  0  0  0
 13 11  2  0  0  0  0
M  END
>  <ID> (7958450)
7958450

>  <Supplier> (7958450)
ChemBridge

>  <clogP> (7958450)
3.507000000000000e+000

>  <RB> (7958450)
2

>  <tPSA> (7958450)
4.384000000000000e+001

>  <Hacc> (7958450)
1

>  <Hdon> (7958450)
1

>  <LogSw> (7958450)
-3.868000000000000e+000

>  <Group> (7958450)
2

$$$$
7958453
  -ISIS-  03310818282D

 18 19  0  0  0  0  0  0  0  0999 V2000
    5.3500    1.8458    0.0000 C   0  0  0  0  0  0  0  0  0  0  0  0
    4.9042    2.4583    0.0000 N   0  0  0  0  0  0  0  0  0  0  0  0
    4.9042    1.2458    0.0000 N   0  0  0  0  0  0  0  0  0  0  0  0
    4.1917    2.2208    0.0000 C   0  0  0  0  0  0  0  0  0  0  0  0
    4.1917    1.4708    0.0000 O   0  0  0  0  0  0  0  0  0  0  0  0
    6.1000    1.8458    0.0000 C   0  0  0  0  0  0  0  0  0  0  0  0
    2.2917    2.8000    0.0000 C   0  0  0  0  0  0  0  0  0  0  0  0
    6.4750    1.1958    0.0000 C   0  0  0  0  0  0  0  0  0  0  0  0
    2.3750    3.5458    0.0000 O   0  0  0  0  0  0  0  0  0  0  0  0
    1.6042    2.4958    0.0000 N   0  0  0  0  0  0  0  0  0  0  0  0
    3.5875    2.6625    0.0000 C   0  0  0  0  0  0  0  0  0  0  0  0
    2.9000    2.3583    0.0000 C   0  0  0  0  0  0  0  0  0  0  0  0
    6.4750    2.4958    0.0000 C   0  0  0  0  0  0  0  0  0  0  0  0
    6.1000    0.5458    0.0000 C   0  0  0  0  0  0  0  0  0  0  0  0
    7.2250    1.1958    0.0000 C   0  0  0  0  0  0  0  0  0  0  0  0
    1.0042    2.9333    0.0000 C   0  0  0  0  0  0  0  0  0  0  0  0
    7.2250    2.4958    0.0000 C   0  0  0  0  0  0  0  0  0  0  0  0
    7.6000    1.8458    0.0000 C   0  0  0  0  0  0  0  0  0  0  0  0
  2  1  1  0  0  0  0
  3  1  2  0  0  0  0
  4  2  2  0  0  0  0
  5  3  1  0  0  0  0
  6  1  1  0  0  0  0
  7 12  1  0  0  0  0
  8  6  2  0  0  0  0
  9  7  2  0  0  0  0
 10  7  1  0  0  0  0
 11  4  1  0  0  0  0
 12 11  1  0  0  0  0
 13  6  1  0  0  0  0
 14  8  1  0  0  0  0
 15  8  1  0  0  0  0
 16 10  1  0  0  0  0
 17 13  2  0  0  0  0
 18 17  1  0  0  0  0
  5  4  1  0  0  0  0
 15 18  2  0  0  0  0
M  END
>  <ID> (7958453)
7958453

>  <Supplier> (7958453)
ChemBridge

>  <clogP> (7958453)
4.380000000000000e-001

>  <RB> (7958453)
4

>  <tPSA> (7958453)
6.802000000000000e+001

>  <Hacc> (7958453)
4

>  <Hdon> (7958453)
1

>  <LogSw> (7958453)
-1.364000000000000e+000

>  <Group> (7958453)
3

>  <Core> (7958453)
206

$$$$
7958452
  -ISIS-  03310818282D

 31 35  0  0  0  0  0  0  0  0999 V2000
    7.9000    1.5625    0.0000 N   0  0  3  0  0  0  0  0  0  0  0  0
    7.9792    0.8208    0.0000 C   0  0  0  0  0  0  0  0  0  0  0  0
    8.5875    1.8708    0.0000 C   0  0  0  0  0  0  0  0  0  0  0  0
    9.8375    0.0083    0.0000 C   0  0  3  0  0  0  0  0  0  0  0  0
   10.2042    0.6583    0.0000 C   0  0  3  0  0  0  0  0  0  0  0  0
    8.7125    0.6583    0.0000 C   0  0  3  0  0  0  0  0  0  0  0  0
    9.0875    1.3083    0.0000 C   0  0  3  0  0  0  0  0  0  0  0  0
    9.8375    1.3083    0.0000 C   0  0  3  0  0  0  0  0  0  0  0  0
    9.4625    0.6583    0.0000 C   0  0  3  0  0  0  0  0  0  0  0  0
   10.5792    0.0083    0.0000 C   0  0  0  0  0  0  0  0  0  0  0  0
   10.2042    1.9583    0.0000 C   0  0  0  0  0  0  0  0  0  0  0  0
   10.4042    1.2333    0.0000 C   0  0  0  0  0  0  0  0  0  0  0  0
    7.4167    0.3125    0.0000 O   0  0  0  0  0  0  0  0  0  0  0  0
    8.7417    2.6000    0.0000 O   0  0  0  0  0  0  0  0  0  0  0  0
    1.8167    0.4833    0.0000 C   0  0  0  0  0  0  0  0  0  0  0  0
    4.2292    1.2458    0.0000 C   0  0  0  0  0  0  0  0  0  0  0  0
    3.5250    1.4958    0.0000 N   0  0  0  0  0  0  0  0  0  0  0  0
    1.0792    0.6083    0.0000 C   0  0  0  0  0  0  0  0  0  0  0  0
    2.3042    1.0583    0.0000 C   0  0  0  0  0  0  0  0  0  0  0  0
    3.0417    0.9208    0.0000 C   0  0  0  0  0  0  0  0  0  0  0  0
    4.3542    0.5000    0.0000 O   0  0  0  0  0  0  0  0  0  0  0  0
    0.6000    0.0333    0.0000 O   0  0  0  0  0  0  0  0  0  0  0  0
    7.2500    1.9375    0.0000 C   0  0  0  0  0  0  0  0  0  0  0  0
    2.0792   -0.2167    0.0000 C   0  0  0  0  0  0  0  0  0  0  0  0
    2.8167   -0.3542    0.0000 C   0  0  0  0  0  0  0  0  0  0  0  0
    4.8042    1.7208    0.0000 C   0  0  0  0  0  0  0  0  0  0  0  0
    3.3000    0.2208    0.0000 C   0  0  0  0  0  0  0  0  0  0  0  0
    0.8250    1.3125    0.0000 C   0  0  0  0  0  0  0  0  0  0  0  0
    6.6750    1.4583    0.0000 C   0  0  0  0  0  0  0  0  0  0  0  0
    5.4542    1.3458    0.0000 C   0  0  0  0  0  0  0  0  0  0  0  0
    6.0292    1.8333    0.0000 C   0  0  0  0  0  0  0  0  0  0  0  0
  2  1  1  0  0  0  0
  3  1  1  0  0  0  0
  4  9  1  0  0  0  0
  5  8  1  0  0  0  0
  6  2  1  0  0  0  0
  7  3  1  0  0  0  0
  8  7  1  0  0  0  0
  9  6  1  0  0  0  0
 10  5  1  0  0  0  0
 11  8  1  0  0  0  0
 12  9  1  0  0  0  0
 13  2  2  0  0  0  0
 14  3  2  0  0  0  0
 15 19  2  0  0  0  0
 16 26  1  0  0  0  0
 17 16  1  0  0  0  0
 18 15  1  0  0  0  0
 19 20  1  0  0  0  0
 20 17  1  0  0  0  0
 21 16  2  0  0  0  0
 22 18  2  0  0  0  0
 23  1  1  0  0  0  0
 24 25  2  0  0  0  0
 25 27  1  0  0  0  0
 26 30  1  0  0  0  0
 27 20  2  0  0  0  0
 28 18  1  0  0  0  0
 29 23  1  0  0  0  0
 30 31  1  0  0  0  0
 31 29  1  0  0  0  0
  7  6  1  0  0  0  0
  5  4  1  0  0  0  0
 11 12  2  0  0  0  0
  4 10  1  0  0  0  0
 24 15  1  0  0  0  0
M  END
>  <ID> (7958452)
7958452

>  <Supplier> (7958452)
ChemBridge

>  <clogP> (7958452)
2.033000000000000e+000

>  <RB> (7958452)
8

>  <tPSA> (7958452)
8.355000000000010e+001

>  <Hacc> (7958452)
4

>  <Hdon> (7958452)
1

>  <LogSw> (7958452)
-4.002000000000000e+000

>  <Group> (7958452)
1

>  <Core> (7958452)
311

$$$$
7958456
  -ISIS-  03310818282D

 27 29  0  0  0  0  0  0  0  0999 V2000
    6.0250    1.6625    0.0000 N   0  0  0  0  0  0  0  0  0  0  0  0
    6.4667    2.2708    0.0000 C   0  0  0  0  0  0  0  0  0  0  0  0
    6.0250    2.8750    0.0000 N   0  0  0  0  0  0  0  0  0  0  0  0
    5.3125    1.8958    0.0000 C   0  0  0  0  0  0  0  0  0  0  0  0
    5.3125    2.6458    0.0000 O   0  0  0  0  0  0  0  0  0  0  0  0
    2.7250    1.6208    0.0000 N   0  0  0  0  0  0  0  0  0  0  0  0
    7.2167    2.2708    0.0000 C   0  0  0  0  0  0  0  0  0  0  0  0
    3.4125    1.3208    0.0000 C   0  0  0  0  0  0  0  0  0  0  0  0
    2.1167    1.1833    0.0000 C   0  0  0  0  0  0  0  0  0  0  0  0
    7.5917    1.6208    0.0000 C   0  0  0  0  0  0  0  0  0  0  0  0
    1.4292    1.4875    0.0000 C   0  0  0  0  0  0  0  0  0  0  0  0
    3.4917    0.5708    0.0000 O   0  0  0  0  0  0  0  0  0  0  0  0
    4.7042    1.4583    0.0000 C   0  0  0  0  0  0  0  0  0  0  0  0
    4.0167    1.7583    0.0000 C   0  0  0  0  0  0  0  0  0  0  0  0
    8.3417    1.6208    0.0000 C   0  0  0  0  0  0  0  0  0  0  0  0
    1.3542    2.2333    0.0000 O   0  0  0  0  0  0  0  0  0  0  0  0
    8.7167    0.9708    0.0000 O   0  0  0  0  0  0  0  0  0  0  0  0
    7.5917    2.9208    0.0000 C   0  0  0  0  0  0  0  0  0  0  0  0
    8.3417    2.9208    0.0000 C   0  0  0  0  0  0  0  0  0  0  0  0
    2.1917    0.4375    0.0000 C   0  0  0  0  0  0  0  0  0  0  0  0
    0.8292    1.0458    0.0000 C   0  0  0  0  0  0  0  0  0  0  0  0
    8.7167    2.2708    0.0000 C   0  0  0  0  0  0  0  0  0  0  0  0
    0.6667    2.5375    0.0000 C   0  0  0  0  0  0  0  0  0  0  0  0
    9.4667    0.9708    0.0000 C   0  0  0  0  0  0  0  0  0  0  0  0
    0.5917    3.2833    0.0000 C   0  0  0  0  0  0  0  0  0  0  0  0
    1.5917   -0.0042    0.0000 C   0  0  0  0  0  0  0  0  0  0  0  0
    0.9042    0.3000    0.0000 C   0  0  0  0  0  0  0  0  0  0  0  0
  2  1  1  0  0  0  0
  3  2  2  0  0  0  0
  4  1  2  0  0  0  0
  5  4  1  0  0  0  0
  6  8  1  0  0  0  0
  7  2  1  0  0  0  0
  8 14  1  0  0  0  0
  9  6  1  0  0  0  0
 10  7  2  0  0  0  0
 11  9  2  0  0  0  0
 12  8  2  0  0  0  0
 13  4  1  0  0  0  0
 14 13  1  0  0  0  0
 15 10  1  0  0  0  0
 16 11  1  0  0  0  0
 17 15  1  0  0  0  0
 18  7  1  0  0  0  0
 19 18  2  0  0  0  0
 20  9  1  0  0  0  0
 21 11  1  0  0  0  0
 22 19  1  0  0  0  0
 23 16  1  0  0  0  0
 24 17  1  0  0  0  0
 25 23  1  0  0  0  0
 26 20  2  0  0  0  0
 27 26  1  0  0  0  0
  3  5  1  0  0  0  0
 15 22  2  0  0  0  0
 27 21  2  0  0  0  0
M  END
>  <ID> (7958456)
7958456

>  <Supplier> (7958456)
ChemBridge

>  <clogP> (7958456)
2.534000000000000e+000

>  <RB> (7958456)
5

>  <tPSA> (7958456)
8.647999999999999e+001

>  <Hacc> (7958456)
6

>  <Hdon> (7958456)
1

>  <LogSw> (7958456)
-4.043000000000000e+000

>  <Group> (7958456)
2

>  <Core> (7958456)
206

$$$$
6391365
  -ISIS-  03310818232D

 32 34  0  0  0  0  0  0  0  0999 V2000
   -0.4625   -2.4167    0.0000 N   0  0  0  0  0  0  0  0  0  0  0  0
   -0.0500   -3.1375    0.0000 C   0  0  0  0  0  0  0  0  0  0  0  0
   -1.2875   -2.4167    0.0000 C   0  0  0  0  0  0  0  0  0  0  0  0
    4.4792   -3.8750    0.0000 C   0  0  0  0  0  0  0  0  0  0  0  0
   -1.7000   -1.7042    0.0000 C   0  0  0  0  0  0  0  0  0  0  0  0
    4.0750   -3.1542    0.0000 N   0  0  0  0  0  0  0  0  0  0  0  0
    5.3042   -3.8792    0.0000 C   0  0  0  0  0  0  0  0  0  0  0  0
   -2.5333   -1.7042    0.0000 C   0  0  0  0  0  0  0  0  0  0  0  0
    0.7750   -3.1375    0.0000 N   0  0  0  0  0  0  0  0  0  0  0  0
   -2.9458   -0.9792    0.0000 C   0  0  0  0  0  0  0  0  0  0  0  0
   -0.4625   -3.8500    0.0000 S   0  0  0  0  0  0  0  0  0  0  0  0
   -1.7000   -3.1375    0.0000 O   0  0  0  0  0  0  0  0  0  0  0  0
   -2.5333   -0.2667    0.0000 C   0  0  0  0  0  0  0  0  0  0  0  0
    4.0667   -4.5875    0.0000 O   0  0  0  0  0  0  0  0  0  0  0  0
    5.7167   -4.5917    0.0000 C   0  0  0  0  0  0  0  0  0  0  0  0
   -1.2958   -0.9875    0.0000 C   0  0  0  0  0  0  0  0  0  0  0  0
   -1.7083   -0.2667    0.0000 C   0  0  0  0  0  0  0  0  0  0  0  0
    3.2500   -3.1500    0.0000 C   0  0  0  0  0  0  0  0  0  0  0  0
    1.6000   -3.1417    0.0000 C   0  0  0  0  0  0  0  0  0  0  0  0
    6.5417   -4.6000    0.0000 C   0  0  0  0  0  0  0  0  0  0  0  0
   -3.7750   -0.9792    0.0000 O   0  0  0  0  0  0  0  0  0  0  0  0
    2.8292   -3.8625    0.0000 C   0  0  0  0  0  0  0  0  0  0  0  0
    2.8417   -2.4292    0.0000 C   0  0  0  0  0  0  0  0  0  0  0  0
    2.0167   -2.4292    0.0000 C   0  0  0  0  0  0  0  0  0  0  0  0
    2.0042   -3.8542    0.0000 C   0  0  0  0  0  0  0  0  0  0  0  0
   -2.9458    0.4500    0.0000 O   0  0  0  0  0  0  0  0  0  0  0  0
    5.7250   -3.1667    0.0000 C   0  0  0  0  0  0  0  0  0  0  0  0
    6.5500   -3.1667    0.0000 C   0  0  0  0  0  0  0  0  0  0  0  0
    6.9542   -3.8875    0.0000 C   0  0  0  0  0  0  0  0  0  0  0  0
    6.9500   -5.3167    0.0000 C   0  0  0  0  0  0  0  0  0  0  0  0
   -4.1875   -1.6917    0.0000 C   0  0  0  0  0  0  0  0  0  0  0  0
   -2.5333    1.1625    0.0000 C   0  0  0  0  0  0  0  0  0  0  0  0
  2  1  1  0  0  0  0
  3  1  1  0  0  0  0
  4  6  1  0  0  0  0
  5  3  1  0  0  0  0
  6 18  1  0  0  0  0
  7  4  1  0  0  0  0
  8  5  1  0  0  0  0
  9  2  1  0  0  0  0
 10  8  2  0  0  0  0
 11  2  2  0  0  0  0
 12  3  2  0  0  0  0
 13 17  2  0  0  0  0
 14  4  2  0  0  0  0
 15  7  1  0  0  0  0
 16  5  2  0  0  0  0
 17 16  1  0  0  0  0
 18 22  2  0  0  0  0
 19  9  1  0  0  0  0
 20 15  2  0  0  0  0
 21 10  1  0  0  0  0
 22 25  1  0  0  0  0
 23 24  2  0  0  0  0
 24 19  1  0  0  0  0
 25 19  2  0  0  0  0
 26 13  1  0  0  0  0
 27  7  2  0  0  0  0
 28 27  1  0  0  0  0
 29 28  2  0  0  0  0
 30 20  1  0  0  0  0
 31 21  1  0  0  0  0
 32 26  1  0  0  0  0
 13 10  1  0  0  0  0
 23 18  1  0  0  0  0
 29 20  1  0  0  0  0
M  END
>  <ID> (6391365)
6391365

>  <Supplier> (6391365)
ChemBridge

>  <clogP> (6391365)
3.430000000000000e+000

>  <RB> (6391365)
4

>  <tPSA> (6391365)
8.869000000000003e+001

>  <Hacc> (6391365)
4

>  <Hdon> (6391365)
3

>  <LogSw> (6391365)
-5.406000000000002e+000

>  <Group> (6391365)
1

>  <Core> (6391365)
571

$$$$
9136595
  -ISIS-  03310818292D

 25 26  0  0  0  0  0  0  0  0999 V2000
    5.6417    2.2708    0.0000 C   0  0  0  0  0  0  0  0  0  0  0  0
    5.2667    2.9208    0.0000 N   0  0  0  0  0  0  0  0  0  0  0  0
    6.3917    2.2708    0.0000 C   0  0  3  0  0  0  0  0  0  0  0  0
    1.8917    2.2708    0.0000 C   0  0  0  0  0  0  0  0  0  0  0  0
    6.7667    1.6208    0.0000 O   0  0  0  0  0  0  0  0  0  0  0  0
    2.2667    2.9208    0.0000 N   0  0  0  0  0  0  0  0  0  0  0  0
    5.2667    1.6208    0.0000 O   0  0  0  0  0  0  0  0  0  0  0  0
    7.5167    1.6208    0.0000 C   0  0  0  0  0  0  0  0  0  0  0  0
    2.2667    1.6208    0.0000 O   0  0  0  0  0  0  0  0  0  0  0  0
    4.5167    2.9208    0.0000 C   0  0  0  0  0  0  0  0  0  0  0  0
    3.0167    2.9208    0.0000 C   0  0  0  0  0  0  0  0  0  0  0  0
    7.8917    0.9708    0.0000 C   0  0  0  0  0  0  0  0  0  0  0  0
    4.1417    2.2708    0.0000 C   0  0  0  0  0  0  0  0  0  0  0  0
    4.1417    3.5708    0.0000 C   0  0  0  0  0  0  0  0  0  0  0  0
    3.3917    3.5708    0.0000 C   0  0  0  0  0  0  0  0  0  0  0  0
    3.3917    2.2708    0.0000 C   0  0  0  0  0  0  0  0  0  0  0  0
    8.6417    0.9708    0.0000 C   0  0  0  0  0  0  0  0  0  0  0  0
    8.6417    2.2708    0.0000 C   0  0  0  0  0  0  0  0  0  0  0  0
    1.1417    2.2708    0.0000 C   0  0  0  0  0  0  0  0  0  0  0  0
    7.8917    2.2708    0.0000 C   0  0  0  0  0  0  0  0  0  0  0  0
    6.7667    2.9208    0.0000 C   0  0  0  0  0  0  0  0  0  0  0  0
    9.0167    1.6208    0.0000 C   0  0  0  0  0  0  0  0  0  0  0  0
    9.0167    0.3208    0.0000 C   0  0  0  0  0  0  0  0  0  0  0  0
    0.7667    1.6208    0.0000 C   0  0  0  0  0  0  0  0  0  0  0  0
    7.5167    2.9208    0.0000 C   0  0  0  0  0  0  0  0  0  0  0  0
  2  1  1  0  0  0  0
  3  1  1  0  0  0  0
  4  6  1  0  0  0  0
  5  3  1  0  0  0  0
  6 11  1  0  0  0  0
  7  1  2  0  0  0  0
  8  5  1  0  0  0  0
  9  4  2  0  0  0  0
 10  2  1  0  0  0  0
 11 15  1  0  0  0  0
 12  8  1  0  0  0  0
 13 10  2  0  0  0  0
 14 10  1  0  0  0  0
 15 14  2  0  0  0  0
 16 13  1  0  0  0  0
 17 12  2  0  0  0  0
 18 20  1  0  0  0  0
 19  4  1  0  0  0  0
 20  8  2  0  0  0  0
 21  3  1  0  0  0  0
 22 18  2  0  0  0  0
 23 17  1  0  0  0  0
 24 19  1  0  0  0  0
 25 21  1  0  0  0  0
 16 11  2  0  0  0  0
 17 22  1  0  0  0  0
M  END
>  <ID> (9136595)
9136595

>  <Supplier> (9136595)
ChemBridge

>  <clogP> (9136595)
3.562000000000000e+000

>  <RB> (9136595)
5

>  <tPSA> (9136595)
6.743000000000001e+001

>  <Hacc> (9136595)
3

>  <Hdon> (9136595)
2

>  <LogSw> (9136595)
-4.723999999999998e+000

>  <Group> (9136595)
2

$$$$
6753518
  -ISIS-  03310818242D

 33 35  0  0  0  0  0  0  0  0999 V2000
    5.7792    1.4000    0.0000 N   0  0  3  0  0  0  0  0  0  0  0  0
    2.0292    1.4000    0.0000 N   0  0  3  0  0  0  0  0  0  0  0  0
    3.5292    1.4000    0.0000 N   0  0  3  0  0  0  0  0  0  0  0  0
    6.5292    1.4000    0.0000 C   0  0  0  0  0  0  0  0  0  0  0  0
    3.6042    4.4375    0.0000 C   0  0  0  0  0  0  0  0  0  0  0  0
    4.3417    4.5750    0.0000 C   0  0  0  0  0  0  0  0  0  0  0  0
    4.2792    1.4000    0.0000 C   0  0  3  0  0  0  0  0  0  0  0  0
    4.6542    0.7500    0.0000 C   0  0  0  0  0  0  0  0  0  0  0  0
    4.6542    2.0500    0.0000 C   0  0  0  0  0  0  0  0  0  0  0  0
    5.4042    0.7500    0.0000 C   0  0  0  0  0  0  0  0  0  0  0  0
    5.4042    2.0500    0.0000 C   0  0  0  0  0  0  0  0  0  0  0  0
    2.4042    0.7500    0.0000 C   0  0  0  0  0  0  0  0  0  0  0  0
    2.4042    2.0500    0.0000 C   0  0  0  0  0  0  0  0  0  0  0  0
    3.1542    0.7500    0.0000 C   0  0  0  0  0  0  0  0  0  0  0  0
    3.1542    2.0500    0.0000 C   0  0  0  0  0  0  0  0  0  0  0  0
    1.2792    1.4000    0.0000 C   0  0  0  0  0  0  0  0  0  0  0  0
    6.9042    0.7500    0.0000 O   0  0  0  0  0  0  0  0  0  0  0  0
    3.1167    5.0042    0.0000 O   0  0  0  0  0  0  0  0  0  0  0  0
    4.8292    4.0042    0.0000 O   0  0  0  0  0  0  0  0  0  0  0  0
    6.9042    2.0500    0.0000 C   0  0  0  0  0  0  0  0  0  0  0  0
    4.5917    5.2792    0.0000 O   0  0  0  0  0  0  0  0  0  0  0  0
    3.3542    3.7333    0.0000 O   0  0  0  0  0  0  0  0  0  0  0  0
    7.6542    2.0500    0.0000 C   0  0  0  0  0  0  0  0  0  0  0  0
    8.0292    2.7083    0.0000 C   0  0  3  0  0  0  0  0  0  0  0  0
    0.9042    2.0500    0.0000 C   0  0  0  0  0  0  0  0  0  0  0  0
    0.9042    0.7500    0.0000 C   0  0  0  0  0  0  0  0  0  0  0  0
    8.7792    2.7833    0.0000 C   0  0  0  0  0  0  0  0  0  0  0  0
    7.7292    3.3958    0.0000 C   0  0  0  0  0  0  0  0  0  0  0  0
    0.1542    2.0500    0.0000 C   0  0  0  0  0  0  0  0  0  0  0  0
    0.1542    0.7500    0.0000 C   0  0  0  0  0  0  0  0  0  0  0  0
    8.9375    3.5208    0.0000 C   0  0  0  0  0  0  0  0  0  0  0  0
    8.2875    3.8958    0.0000 C   0  0  0  0  0  0  0  0  0  0  0  0
   -0.2208    1.4000    0.0000 C   0  0  0  0  0  0  0  0  0  0  0  0
  2 13  1  0  0  0  0
  3  7  1  0  0  0  0
  4  1  1  0  0  0  0
  6  5  1  0  0  0  0
  7  9  1  0  0  0  0
  8 10  1  0  0  0  0
  9 11  1  0  0  0  0
 10  1  1  0  0  0  0
 11  1  1  0  0  0  0
 12 14  1  0  0  0  0
 13 15  1  0  0  0  0
 14  3  1  0  0  0  0
 15  3  1  0  0  0  0
 16  2  1  0  0  0  0
 17  4  2  0  0  0  0
 18  5  2  0  0  0  0
 19  6  2  0  0  0  0
 20  4  1  0  0  0  0
 21  6  1  0  0  0  0
 22  5  1  0  0  0  0
 23 20  1  0  0  0  0
 24 23  1  0  0  0  0
 25 16  2  0  0  0  0
 26 16  1  0  0  0  0
 27 24  1  0  0  0  0
 28 24  1  0  0  0  0
 29 25  1  0  0  0  0
 30 26  2  0  0  0  0
 31 27  1  0  0  0  0
 32 28  1  0  0  0  0
 33 30  1  0  0  0  0
  8  7  1  0  0  0  0
 12  2  1  0  0  0  0
 32 31  1  0  0  0  0
 33 29  2  0  0  0  0
M  END
>  <ID> (6753518)
6753518

>  <Supplier> (6753518)
ChemBridge

>  <clogP> (6753518)
1.220000000000000e+000

>  <RB> (6753518)
5

>  <tPSA> (6753518)
1.013900000000000e+002

>  <Hacc> (6753518)
6

>  <Hdon> (6753518)
2

>  <LogSw> (6753518)
-2.936000000000000e+000

>  <Group> (6753518)
3

>  <Core> (6753518)
162

$$$$
5772356
  -ISIS-  03310818222D

 14 15  0  0  0  0  0  0  0  0999 V2000
    0.7500    0.5625    0.0000 N   0  0  3  0  0  0  0  0  0  0  0  0
   -2.9125   -0.0542    0.0000 S   0  0  3  0  0  0  0  0  0  0  0  0
    1.8875    1.4000    0.0000 N   0  0  0  0  0  0  0  0  0  0  0  0
    1.1875   -0.8000    0.0000 C   0  0  0  0  0  0  0  0  0  0  0  0
   -0.6958    0.5625    0.0000 C   0  0  3  0  0  0  0  0  0  0  0  0
   -1.5708   -0.5542    0.0000 C   0  0  0  0  0  0  0  0  0  0  0  0
    2.6042   -0.8000    0.0000 C   0  0  0  0  0  0  0  0  0  0  0  0
    3.0500    0.5625    0.0000 C   0  0  0  0  0  0  0  0  0  0  0  0
   -4.3333    0.1458    0.0000 O   0  0  0  0  0  0  0  0  0  0  0  0
   -3.5333   -1.3375    0.0000 O   0  0  0  0  0  0  0  0  0  0  0  0
   -1.4708    1.7458    0.0000 C   0  0  0  0  0  0  0  0  0  0  0  0
   -2.8500    1.3625    0.0000 C   0  0  0  0  0  0  0  0  0  0  0  0
    0.3500   -1.9792    0.0000 C   0  0  0  0  0  0  0  0  0  0  0  0
    4.4042    1.0000    0.0000 C   0  0  0  0  0  0  0  0  0  0  0  0
  2  6  1  0  0  0  0
  3  1  1  0  0  0  0
  4  1  1  0  0  0  0
  5  1  1  0  0  0  0
  6  5  1  0  0  0  0
  7  4  2  0  0  0  0
  8  3  2  0  0  0  0
  9  2  2  0  0  0  0
 10  2  2  0  0  0  0
 11  5  1  0  0  0  0
 12 11  1  0  0  0  0
 13  4  1  0  0  0  0
 14  8  1  0  0  0  0
  7  8  1  0  0  0  0
 12  2  1  0  0  0  0
M  END
>  <ID> (5772356)
5772356

>  <Supplier> (5772356)
ChemBridge

>  <clogP> (5772356)
-2.050000000000000e+000

>  <RB> (5772356)
1

>  <tPSA> (5772356)
5.195999999999998e+001

>  <Hacc> (5772356)
4

>  <Hdon> (5772356)
0

>  <LogSw> (5772356)
6.689999999999998e-001

>  <Group> (5772356)
1

$$$$
5922619
  -ISIS-  03310818232D

 32 34  0  0  0  0  0  0  0  0999 V2000
    1.1000   -1.3500    0.0000 S   0  0  3  0  0  0  0  0  0  0  0  0
   -1.1000   -0.5875    0.0000 C   0  0  0  0  0  0  0  0  0  0  0  0
   -1.5333    0.1708    0.0000 C   0  0  0  0  0  0  0  0  0  0  0  0
   -3.7208    0.8333    0.0000 C   0  0  0  0  0  0  0  0  0  0  0  0
   -2.3833    0.1625    0.0000 N   0  0  0  0  0  0  0  0  0  0  0  0
    0.2042   -1.3500    0.0000 C   0  0  0  0  0  0  0  0  0  0  0  0
   -0.2208   -0.5875    0.0000 C   0  0  0  0  0  0  0  0  0  0  0  0
    1.9542   -1.3500    0.0000 N   0  0  0  0  0  0  0  0  0  0  0  0
   -2.8500    0.8500    0.0000 C   0  0  0  0  0  0  0  0  0  0  0  0
   -4.1333    0.0708    0.0000 C   0  0  0  0  0  0  0  0  0  0  0  0
    4.6042    0.1708    0.0000 C   0  0  0  0  0  0  0  0  0  0  0  0
    1.1000   -2.2292    0.0000 O   0  0  0  0  0  0  0  0  0  0  0  0
    1.1000   -0.4667    0.0000 O   0  0  0  0  0  0  0  0  0  0  0  0
   -1.5500   -1.3500    0.0000 C   0  0  0  0  0  0  0  0  0  0  0  0
    3.7292    0.1708    0.0000 C   0  0  0  0  0  0  0  0  0  0  0  0
   -1.0625    0.9208    0.0000 O   0  0  0  0  0  0  0  0  0  0  0  0
    2.4042   -0.5875    0.0000 C   0  0  0  0  0  0  0  0  0  0  0  0
    3.3000   -0.5875    0.0000 C   0  0  0  0  0  0  0  0  0  0  0  0
   -3.6708   -0.6792    0.0000 O   0  0  0  0  0  0  0  0  0  0  0  0
    5.0500    0.9458    0.0000 O   0  0  0  0  0  0  0  0  0  0  0  0
   -0.2208   -2.1042    0.0000 C   0  0  0  0  0  0  0  0  0  0  0  0
   -1.1208   -2.1042    0.0000 C   0  0  0  0  0  0  0  0  0  0  0  0
   -4.9583    0.0708    0.0000 O   0  0  0  0  0  0  0  0  0  0  0  0
    4.9667   -0.6000    0.0000 O   0  0  0  0  0  0  0  0  0  0  0  0
   -2.4125   -1.3375    0.0000 Cl  0  0  0  0  0  0  0  0  0  0  0  0
   -4.1958    1.5625    0.0000 C   0  0  0  0  0  0  0  0  0  0  0  0
   -2.4625    1.6458    0.0000 C   0  0  0  0  0  0  0  0  0  0  0  0
    3.2792    0.9333    0.0000 C   0  0  0  0  0  0  0  0  0  0  0  0
    2.4042    0.9333    0.0000 C   0  0  0  0  0  0  0  0  0  0  0  0
    1.9542    0.1708    0.0000 C   0  0  0  0  0  0  0  0  0  0  0  0
   -3.7625    2.3708    0.0000 C   0  0  0  0  0  0  0  0  0  0  0  0
   -2.9125    2.3625    0.0000 C   0  0  0  0  0  0  0  0  0  0  0  0
  2  7  2  0  0  0  0
  3  2  1  0  0  0  0
  4  9  2  0  0  0  0
  5  3  1  0  0  0  0
  6  1  1  0  0  0  0
  7  6  1  0  0  0  0
  8  1  1  0  0  0  0
  9  5  1  0  0  0  0
 10  4  1  0  0  0  0
 11 15  1  0  0  0  0
 12  1  2  0  0  0  0
 13  1  2  0  0  0  0
 14 22  2  0  0  0  0
 15 18  2  0  0  0  0
 16  3  2  0  0  0  0
 17  8  1  0  0  0  0
 18 17  1  0  0  0  0
 19 10  2  0  0  0  0
 20 11  2  0  0  0  0
 21  6  2  0  0  0  0
 22 21  1  0  0  0  0
 23 10  1  0  0  0  0
 24 11  1  0  0  0  0
 25 14  1  0  0  0  0
 26  4  1  0  0  0  0
 27  9  1  0  0  0  0
 28 29  2  0  0  0  0
 29 30  1  0  0  0  0
 30 17  2  0  0  0  0
 31 32  1  0  0  0  0
 32 27  2  0  0  0  0
  2 14  1  0  0  0  0
 15 28  1  0  0  0  0
 31 26  2  0  0  0  0
M  END
>  <ID> (5922619)
5922619

>  <Supplier> (5922619)
ChemBridge

>  <clogP> (5922619)
3.910000000000000e+000

>  <RB> (5922619)
6

>  <tPSA> (5922619)
1.498700000000000e+002

>  <Hacc> (5922619)
7

>  <Hdon> (5922619)
4

>  <LogSw> (5922619)
-6.000000000000000e+000

>  <Group> (5922619)
1

>  <Core> (5922619)
272

$$$$
7195504
  -ISIS-  03310818262D

 25 27  0  0  0  0  0  0  0  0999 V2000
    6.3667   -1.3042    0.0000 N   0  0  3  0  0  0  0  0  0  0  0  0
    5.7917   -0.9625    0.0000 C   0  0  0  0  0  0  0  0  0  0  0  0
    6.9542   -0.9792    0.0000 C   0  0  0  0  0  0  0  0  0  0  0  0
    5.8000   -0.2875    0.0000 N   0  0  0  0  0  0  0  0  0  0  0  0
    6.9667   -0.3125    0.0000 N   0  0  0  0  0  0  0  0  0  0  0  0
    6.3792   -2.2750    0.0000 N   0  0  0  0  0  0  0  0  0  0  0  0
    6.3750   -2.9792    0.0000 C   0  0  0  0  0  0  0  0  0  0  0  0
    5.1167   -0.9750    0.0000 C   0  0  3  0  0  0  0  0  0  0  0  0
    4.4167   -4.0917    0.0000 C   0  0  0  0  0  0  0  0  0  0  0  0
    7.7542   -1.0000    0.0000 S   0  0  0  0  0  0  0  0  0  0  0  0
    3.7625   -4.4625    0.0000 N   0  0  3  0  0  0  0  0  0  0  0  0
    5.0625   -4.4750    0.0000 C   0  0  0  0  0  0  0  0  0  0  0  0
    4.4167   -3.3417    0.0000 C   0  0  0  0  0  0  0  0  0  0  0  0
    5.7250   -3.3500    0.0000 C   0  0  0  0  0  0  0  0  0  0  0  0
    5.0750   -2.9750    0.0000 C   0  0  0  0  0  0  0  0  0  0  0  0
    5.7167   -4.1042    0.0000 C   0  0  0  0  0  0  0  0  0  0  0  0
    3.7542   -5.2125    0.0000 C   0  0  0  0  0  0  0  0  0  0  0  0
    3.1167   -4.0792    0.0000 C   0  0  0  0  0  0  0  0  0  0  0  0
    4.7667   -0.3917    0.0000 C   0  0  0  0  0  0  0  0  0  0  0  0
    4.7917   -1.5625    0.0000 C   0  0  0  0  0  0  0  0  0  0  0  0
    2.4667   -4.4417    0.0000 C   0  0  0  0  0  0  0  0  0  0  0  0
    3.1042   -5.5792    0.0000 C   0  0  0  0  0  0  0  0  0  0  0  0
    4.1125   -1.5750    0.0000 C   0  0  0  0  0  0  0  0  0  0  0  0
    4.0917   -0.4042    0.0000 C   0  0  0  0  0  0  0  0  0  0  0  0
    3.7667   -0.9917    0.0000 C   0  0  0  0  0  0  0  0  0  0  0  0
  2  1  1  0  0  0  0
  3  1  1  0  0  0  0
  4  2  2  0  0  0  0
  5  3  2  0  0  0  0
  6  1  1  0  0  0  0
  7  6  2  0  0  0  0
  8  2  1  0  0  0  0
  9 12  1  0  0  0  0
 10  3  1  0  0  0  0
 11  9  1  0  0  0  0
 12 16  2  0  0  0  0
 13 15  1  0  0  0  0
 14  7  1  0  0  0  0
 15 14  2  0  0  0  0
 16 14  1  0  0  0  0
 17 11  1  0  0  0  0
 18 11  1  0  0  0  0
 19  8  1  0  0  0  0
 20  8  1  0  0  0  0
 21 18  1  0  0  0  0
 22 17  1  0  0  0  0
 23 20  1  0  0  0  0
 24 19  1  0  0  0  0
 25 23  1  0  0  0  0
  4  5  1  0  0  0  0
 13  9  2  0  0  0  0
 24 25  1  0  0  0  0
M  END
>  <ID> (7195504)
7195504

>  <Supplier> (7195504)
ChemBridge

>  <clogP> (7195504)
4.230000000000000e+000

>  <RB> (7195504)
3

>  <tPSA> (7195504)
4.631000000000000e+001

>  <Hacc> (7195504)
4

>  <Hdon> (7195504)
0

>  <LogSw> (7195504)
-5.419000000000001e+000

>  <Group> (7195504)
1

>  <Core> (7195504)
292

$$$$
6401451
  -ISIS-  03310818232D

 28 29  0  0  0  0  0  0  0  0999 V2000
    6.0917   -4.4542    0.0000 S   0  0  3  0  0  0  0  0  0  0  0  0
    6.0917   -3.6292    0.0000 N   0  0  3  0  0  0  0  0  0  0  0  0
   10.3792   -3.6292    0.0000 C   0  0  0  0  0  0  0  0  0  0  0  0
   11.1000   -3.2250    0.0000 C   0  0  3  0  0  0  0  0  0  0  0  0
    6.8125   -3.2167    0.0000 C   0  0  0  0  0  0  0  0  0  0  0  0
    5.3792   -3.2167    0.0000 C   0  0  0  0  0  0  0  0  0  0  0  0
    7.5250   -3.6292    0.0000 C   0  0  0  0  0  0  0  0  0  0  0  0
    4.6667   -3.6417    0.0000 C   0  0  0  0  0  0  0  0  0  0  0  0
   10.3792   -4.4625    0.0000 C   0  0  0  0  0  0  0  0  0  0  0  0
    6.9167   -4.4542    0.0000 O   0  0  0  0  0  0  0  0  0  0  0  0
    6.6792   -5.0375    0.0000 O   0  0  0  0  0  0  0  0  0  0  0  0
    9.6667   -3.2125    0.0000 C   0  0  0  0  0  0  0  0  0  0  0  0
    8.2417   -3.2167    0.0000 N   0  0  0  0  0  0  0  0  0  0  0  0
    3.9417   -3.2167    0.0000 C   0  0  0  0  0  0  0  0  0  0  0  0
    8.9542   -3.6292    0.0000 C   0  0  0  0  0  0  0  0  0  0  0  0
    3.9500   -2.3875    0.0000 C   0  0  0  0  0  0  0  0  0  0  0  0
    5.3792   -2.3875    0.0000 C   0  0  0  0  0  0  0  0  0  0  0  0
    7.5250   -4.4542    0.0000 O   0  0  0  0  0  0  0  0  0  0  0  0
   11.8167   -3.6417    0.0000 F   0  0  0  0  0  0  0  0  0  0  0  0
   11.1042   -2.4000    0.0000 F   0  0  0  0  0  0  0  0  0  0  0  0
   11.3042   -4.0250    0.0000 F   0  0  0  0  0  0  0  0  0  0  0  0
    4.6792   -1.9750    0.0000 C   0  0  0  0  0  0  0  0  0  0  0  0
    9.6625   -4.8667    0.0000 C   0  0  0  0  0  0  0  0  0  0  0  0
    5.3792   -4.8625    0.0000 C   0  0  0  0  0  0  0  0  0  0  0  0
    8.9500   -4.4542    0.0000 C   0  0  0  0  0  0  0  0  0  0  0  0
   11.0917   -4.8792    0.0000 Cl  0  0  0  0  0  0  0  0  0  0  0  0
    3.2292   -3.6167    0.0000 C   0  0  0  0  0  0  0  0  0  0  0  0
    3.2417   -1.9667    0.0000 C   0  0  0  0  0  0  0  0  0  0  0  0
  2  1  1  0  0  0  0
  3 12  2  0  0  0  0
  4  3  1  0  0  0  0
  5  2  1  0  0  0  0
  6  2  1  0  0  0  0
  7  5  1  0  0  0  0
  8  6  1  0  0  0  0
  9 23  2  0  0  0  0
 10  1  2  0  0  0  0
 11  1  2  0  0  0  0
 12 15  1  0  0  0  0
 13  7  1  0  0  0  0
 14  8  2  0  0  0  0
 15 13  1  0  0  0  0
 16 22  2  0  0  0  0
 17  6  2  0  0  0  0
 18  7  2  0  0  0  0
 19  4  1  0  0  0  0
 20  4  1  0  0  0  0
 21  4  1  0  0  0  0
 22 17  1  0  0  0  0
 23 25  1  0  0  0  0
 24  1  1  0  0  0  0
 25 15  2  0  0  0  0
 26  9  1  0  0  0  0
 27 14  1  0  0  0  0
 28 16  1  0  0  0  0
 16 14  1  0  0  0  0
  9  3  1  0  0  0  0
M  END
>  <ID> (6401451)
6401451

>  <Supplier> (6401451)
ChemBridge

>  <clogP> (6401451)
5.080000000000000e+000

>  <RB> (6401451)
4

>  <tPSA> (6401451)
6.647999999999998e+001

>  <Hacc> (6401451)
3

>  <Hdon> (6401451)
1

>  <LogSw> (6401451)
-6.708000000000000e+000

>  <Group> (6401451)
3

>  <Core> (6401451)
084

$$$$
6401450
  -ISIS-  03310818232D

 18 19  0  0  0  0  0  0  0  0999 V2000
    0.4042    0.1583    0.0000 S   0  0  3  0  0  0  0  0  0  0  0  0
   -0.4125    0.1625    0.0000 C   0  0  0  0  0  0  0  0  0  0  0  0
   -0.8333   -0.5417    0.0000 C   0  0  0  0  0  0  0  0  0  0  0  0
    1.2375    0.1583    0.0000 N   0  0  3  0  0  0  0  0  0  0  0  0
   -1.6500   -0.5375    0.0000 C   0  0  0  0  0  0  0  0  0  0  0  0
   -0.8208    0.8833    0.0000 C   0  0  0  0  0  0  0  0  0  0  0  0
   -0.0083   -0.5542    0.0000 O   0  0  0  0  0  0  0  0  0  0  0  0
    0.0000    0.8708    0.0000 O   0  0  0  0  0  0  0  0  0  0  0  0
   -2.0625    0.1833    0.0000 C   0  0  0  0  0  0  0  0  0  0  0  0
   -1.6458    0.8875    0.0000 C   0  0  0  0  0  0  0  0  0  0  0  0
   -0.4208   -1.2542    0.0000 Cl  0  0  0  0  0  0  0  0  0  0  0  0
   -2.0708   -1.2500    0.0000 Cl  0  0  0  0  0  0  0  0  0  0  0  0
    2.8917    0.1458    0.0000 O   0  0  0  0  0  0  0  0  0  0  0  0
    1.6417    0.8625    0.0000 C   0  0  0  0  0  0  0  0  0  0  0  0
    1.6500   -0.5667    0.0000 C   0  0  0  0  0  0  0  0  0  0  0  0
   -2.8958    0.1833    0.0000 Cl  0  0  0  0  0  0  0  0  0  0  0  0
    2.4750   -0.5667    0.0000 C   0  0  0  0  0  0  0  0  0  0  0  0
    2.4792    0.8625    0.0000 C   0  0  0  0  0  0  0  0  0  0  0  0
  2  1  1  0  0  0  0
  3  2  1  0  0  0  0
  4  1  1  0  0  0  0
  5  3  2  0  0  0  0
  6  2  2  0  0  0  0
  7  1  2  0  0  0  0
  8  1  2  0  0  0  0
  9 10  2  0  0  0  0
 10  6  1  0  0  0  0
 11  3  1  0  0  0  0
 12  5  1  0  0  0  0
 13 17  1  0  0  0  0
 14  4  1  0  0  0  0
 15  4  1  0  0  0  0
 16  9  1  0  0  0  0
 17 15  1  0  0  0  0
 18 14  1  0  0  0  0
 13 18  1  0  0  0  0
  9  5  1  0  0  0  0
M  END
>  <ID> (6401450)
6401450

>  <Supplier> (6401450)
ChemBridge

>  <clogP> (6401450)
3.000000000000000e+000

>  <RB> (6401450)
1

>  <tPSA> (6401450)
4.661000000000000e+001

>  <Hacc> (6401450)
4

>  <Hdon> (6401450)
0

>  <LogSw> (6401450)
-4.173000000000000e+000

>  <Group> (6401450)
3

$$$$
6839486
  -ISIS-  03310818242D

 26 28  0  0  0  0  0  0  0  0999 V2000
    0.3292   -1.4250    0.0000 N   0  0  3  0  0  0  0  0  0  0  0  0
    0.4167   -0.6000    0.0000 C   0  0  0  0  0  0  0  0  0  0  0  0
    1.0917   -1.7625    0.0000 C   0  0  0  0  0  0  0  0  0  0  0  0
    1.2292   -0.4250    0.0000 C   0  0  0  0  0  0  0  0  0  0  0  0
    1.6500   -1.1292    0.0000 C   0  0  0  0  0  0  0  0  0  0  0  0
    5.3542   -0.3542    0.0000 N   0  3  0  0  0  0  0  0  0  0  0  0
    1.6250    0.2958    0.0000 C   0  0  0  0  0  0  0  0  0  0  0  0
    2.4417    0.3083    0.0000 C   0  0  0  0  0  0  0  0  0  0  0  0
    2.8417    1.0333    0.0000 C   0  0  0  0  0  0  0  0  0  0  0  0
   -0.3875   -1.8500    0.0000 C   0  0  3  0  0  0  0  0  0  0  0  0
    4.9292    0.3583    0.0000 C   0  0  0  0  0  0  0  0  0  0  0  0
    3.6750    1.0500    0.0000 C   0  0  0  0  0  0  0  0  0  0  0  0
    2.4667   -1.1167    0.0000 C   0  0  0  0  0  0  0  0  0  0  0  0
    4.1000    0.3375    0.0000 C   0  0  0  0  0  0  0  0  0  0  0  0
   -0.2083   -0.0417    0.0000 O   0  0  0  0  0  0  0  0  0  0  0  0
    1.2667   -2.5750    0.0000 O   0  0  0  0  0  0  0  0  0  0  0  0
    4.9625   -1.0750    0.0000 O   0  5  0  0  0  0  0  0  0  0  0  0
    6.1792   -0.3375    0.0000 O   0  0  0  0  0  0  0  0  0  0  0  0
    2.8667   -0.4000    0.0000 C   0  0  0  0  0  0  0  0  0  0  0  0
    2.4167    1.7375    0.0000 O   0  0  0  0  0  0  0  0  0  0  0  0
    4.0667    1.7708    0.0000 C   0  0  0  0  0  0  0  0  0  0  0  0
    5.3292    1.0833    0.0000 C   0  0  0  0  0  0  0  0  0  0  0  0
    4.8917    1.7958    0.0000 C   0  0  0  0  0  0  0  0  0  0  0  0
   -0.3833   -2.6750    0.0000 C   0  0  0  0  0  0  0  0  0  0  0  0
   -0.6083   -1.0542    0.0000 C   0  0  0  0  0  0  0  0  0  0  0  0
   -1.1083   -1.4417    0.0000 C   0  0  0  0  0  0  0  0  0  0  0  0
  2  1  1  0  0  0  0
  3  1  1  0  0  0  0
  4  2  1  0  0  0  0
  5  3  1  0  0  0  0
  6 11  1  0  0  0  0
  7  4  1  0  0  0  0
  8  7  2  0  0  0  0
  9  8  1  0  0  0  0
 10  1  1  0  0  0  0
 11 14  1  0  0  0  0
 12  9  1  0  0  0  0
 13  5  1  0  0  0  0
 14 12  2  0  0  0  0
 15  2  2  0  0  0  0
 16  3  2  0  0  0  0
 17  6  1  0  0  0  0
 18  6  2  0  0  0  0
 19 13  2  0  0  0  0
 20  9  2  0  0  0  0
 21 12  1  0  0  0  0
 22 23  1  0  0  0  0
 23 21  2  0  0  0  0
 24 10  1  0  0  0  0
 25 10  1  0  0  0  0
 26 10  1  0  0  0  0
  5  4  2  0  0  0  0
  8 19  1  0  0  0  0
 22 11  2  0  0  0  0
M  CHG  2   6   1  17  -1
M  END
>  <ID> (6839486)
6839486

>  <Supplier> (6839486)
ChemBridge

>  <clogP> (6839486)
3.880000000000000e+000

>  <RB> (6839486)
3

>  <tPSA> (6839486)
9.759000000000000e+001

>  <Hacc> (6839486)
5

>  <Hdon> (6839486)
0

>  <LogSw> (6839486)
-5.473000000000002e+000

>  <Group> (6839486)
3

>  <Core> (6839486)
418

$$$$
9129340
  -ISIS-  03310818292D

 23 26  0  0  0  0  0  0  0  0999 V2000
    5.3750    1.8333    0.0000 C   0  0  0  0  0  0  0  0  0  0  0  0
    6.1250    1.8333    0.0000 C   0  0  0  0  0  0  0  0  0  0  0  0
    4.9292    2.4458    0.0000 O   0  0  0  0  0  0  0  0  0  0  0  0
    4.9292    1.2250    0.0000 C   0  0  0  0  0  0  0  0  0  0  0  0
    1.8875    3.4250    0.0000 N   0  0  3  0  0  0  0  0  0  0  0  0
    4.2167    2.2083    0.0000 C   0  0  0  0  0  0  0  0  0  0  0  0
    4.2167    1.4583    0.0000 C   0  0  0  0  0  0  0  0  0  0  0  0
    2.4042    2.8833    0.0000 C   0  0  3  0  0  0  0  0  0  0  0  0
    2.9292    2.3458    0.0000 N   0  0  0  0  0  0  0  0  0  0  0  0
    6.5000    1.1833    0.0000 C   0  0  0  0  0  0  0  0  0  0  0  0
    2.6125    3.6083    0.0000 C   0  0  0  0  0  0  0  0  0  0  0  0
    6.5000    2.4833    0.0000 C   0  0  0  0  0  0  0  0  0  0  0  0
    1.6792    2.7083    0.0000 C   0  0  3  0  0  0  0  0  0  0  0  0
    3.6125    2.6500    0.0000 C   0  0  0  0  0  0  0  0  0  0  0  0
    7.2500    1.1833    0.0000 C   0  0  0  0  0  0  0  0  0  0  0  0
    1.1542    3.2458    0.0000 C   0  0  0  0  0  0  0  0  0  0  0  0
    1.4667    1.9833    0.0000 C   0  0  0  0  0  0  0  0  0  0  0  0
    1.3625    3.9625    0.0000 C   0  0  0  0  0  0  0  0  0  0  0  0
    1.1042    2.6458    0.0000 C   0  0  0  0  0  0  0  0  0  0  0  0
    7.2500    2.4833    0.0000 C   0  0  0  0  0  0  0  0  0  0  0  0
    6.1250    0.5333    0.0000 Cl  0  0  0  0  0  0  0  0  0  0  0  0
    7.6250    1.8333    0.0000 C   0  0  0  0  0  0  0  0  0  0  0  0
    7.6250    3.1333    0.0000 Cl  0  0  0  0  0  0  0  0  0  0  0  0
  2  1  1  0  0  0  0
  3  1  1  0  0  0  0
  4  1  2  0  0  0  0
  5 11  1  0  0  0  0
  6  3  1  0  0  0  0
  7  4  1  0  0  0  0
  8  9  1  0  0  0  0
  9 14  1  0  0  0  0
 10  2  2  0  0  0  0
 11  8  1  0  0  0  0
 12  2  1  0  0  0  0
 13  8  1  0  0  0  0
 14  6  1  0  0  0  0
 15 10  1  0  0  0  0
 16 13  1  0  0  0  0
 17 13  1  0  0  0  0
 18 16  1  0  0  0  0
 19 17  1  0  0  0  0
 20 12  2  0  0  0  0
 21 10  1  0  0  0  0
 22 20  1  0  0  0  0
 23 20  1  0  0  0  0
  7  6  2  0  0  0  0
 15 22  2  0  0  0  0
 19  5  1  0  0  0  0
 18  5  1  0  0  0  0
M  END
>  <ID> (9129340)
9129340

>  <Supplier> (9129340)
ChemBridge

>  <clogP> (9129340)
4.577000000000000e+000

>  <RB> (9129340)
4

>  <tPSA> (9129340)
2.841000000000000e+001

>  <Hacc> (9129340)
3

>  <Hdon> (9129340)
1

>  <LogSw> (9129340)
-4.661999999999997e+000

>  <Group> (9129340)
2

$$$$
5732869
  -ISIS-  03310818222D

 29 32  0  0  0  0  0  0  0  0999 V2000
    0.6875    0.0083    0.0000 N   0  0  3  0  0  0  0  0  0  0  0  0
    0.6875   -0.7417    0.0000 C   0  0  0  0  0  0  0  0  0  0  0  0
    1.9792   -0.7417    0.0000 C   0  0  0  0  0  0  0  0  0  0  0  0
    1.9792    0.0083    0.0000 C   0  0  0  0  0  0  0  0  0  0  0  0
    1.3292   -1.1167    0.0000 S   0  0  0  0  0  0  0  0  0  0  0  0
    0.4750   -5.4417    0.0000 N   0  3  0  0  0  0  0  0  0  0  0  0
    2.6292   -1.1167    0.0000 C   0  0  0  0  0  0  0  0  0  0  0  0
    2.2542   -3.0167    0.0000 C   0  0  0  0  0  0  0  0  0  0  0  0
    2.0292   -2.3042    0.0000 O   0  0  0  0  0  0  0  0  0  0  0  0
    2.6292   -1.8667    0.0000 C   0  0  0  0  0  0  0  0  0  0  0  0
    0.9167   -4.8375    0.0000 C   0  0  0  0  0  0  0  0  0  0  0  0
    3.0042   -3.0250    0.0000 C   0  0  0  0  0  0  0  0  0  0  0  0
    1.6667   -4.9167    0.0000 C   0  0  0  0  0  0  0  0  0  0  0  0
    1.8042   -3.6292    0.0000 C   0  0  0  0  0  0  0  0  0  0  0  0
    3.2375   -2.3125    0.0000 C   0  0  0  0  0  0  0  0  0  0  0  0
    2.1042   -4.3125    0.0000 C   0  0  0  0  0  0  0  0  0  0  0  0
    0.1542    0.5375    0.0000 C   0  0  0  0  0  0  0  0  0  0  0  0
    0.0375   -1.1167    0.0000 O   0  0  0  0  0  0  0  0  0  0  0  0
    0.6167   -4.1500    0.0000 C   0  0  0  0  0  0  0  0  0  0  0  0
   -0.2708   -5.3542    0.0000 O   0  5  0  0  0  0  0  0  0  0  0  0
    0.7750   -6.1292    0.0000 O   0  0  0  0  0  0  0  0  0  0  0  0
    2.5167    0.5375    0.0000 O   0  0  0  0  0  0  0  0  0  0  0  0
    1.0625   -3.5417    0.0000 C   0  0  0  0  0  0  0  0  0  0  0  0
    1.9667   -5.6042    0.0000 C   0  0  0  0  0  0  0  0  0  0  0  0
   -0.5708    0.3458    0.0000 C   0  0  0  0  0  0  0  0  0  0  0  0
    0.3500    1.2625    0.0000 C   0  0  0  0  0  0  0  0  0  0  0  0
   -0.1833    1.7958    0.0000 C   0  0  0  0  0  0  0  0  0  0  0  0
   -1.1000    0.8708    0.0000 C   0  0  0  0  0  0  0  0  0  0  0  0
   -0.9083    1.5958    0.0000 C   0  0  0  0  0  0  0  0  0  0  0  0
  2  1  1  0  0  0  0
  3  4  1  0  0  0  0
  4  1  1  0  0  0  0
  5  2  1  0  0  0  0
  6 11  1  0  0  0  0
  7  3  2  0  0  0  0
  8  9  1  0  0  0  0
  9 10  1  0  0  0  0
 10  7  1  0  0  0  0
 11 19  1  0  0  0  0
 12 15  1  0  0  0  0
 13 16  1  0  0  0  0
 14  8  1  0  0  0  0
 15 10  2  0  0  0  0
 16 14  2  0  0  0  0
 17  1  1  0  0  0  0
 18  2  2  0  0  0  0
 19 23  2  0  0  0  0
 20  6  1  0  0  0  0
 21  6  2  0  0  0  0
 22  4  2  0  0  0  0
 23 14  1  0  0  0  0
 24 13  1  0  0  0  0
 25 17  2  0  0  0  0
 26 17  1  0  0  0  0
 27 26  2  0  0  0  0
 28 25  1  0  0  0  0
 29 27  1  0  0  0  0
  3  5  1  0  0  0  0
 28 29  2  0  0  0  0
 12  8  2  0  0  0  0
 13 11  2  0  0  0  0
M  CHG  2   6   1  20  -1
M  END
>  <ID> (5732869)
5732869

>  <Supplier> (5732869)
ChemBridge

>  <clogP> (5732869)
5.450000000000000e+000

>  <RB> (5732869)
3

>  <tPSA> (5732869)
9.366000000000003e+001

>  <Hacc> (5732869)
5

>  <Hdon> (5732869)
0

>  <LogSw> (5732869)
-7.207000000000000e+000

>  <Group> (5732869)
1

>  <Core> (5732869)
002

$$$$
5732863
  -ISIS-  03310818222D

 25 26  0  0  0  0  0  0  0  0999 V2000
    2.6042   -3.0292    0.0000 S   0  0  3  0  0  0  0  0  0  0  0  0
    2.6125   -2.2792    0.0000 N   0  0  3  0  0  0  0  0  0  0  0  0
    3.2667   -1.9042    0.0000 C   0  0  0  0  0  0  0  0  0  0  0  0
    3.9125   -2.2917    0.0000 C   0  0  0  0  0  0  0  0  0  0  0  0
    3.3542   -3.0292    0.0000 O   0  0  0  0  0  0  0  0  0  0  0  0
    2.9750   -3.6792    0.0000 O   0  0  0  0  0  0  0  0  0  0  0  0
    1.9625   -1.9042    0.0000 C   0  0  0  0  0  0  0  0  0  0  0  0
    4.5667   -1.9167    0.0000 N   0  0  0  0  0  0  0  0  0  0  0  0
    7.1667   -1.9292    0.0000 N   0  0  0  0  0  0  0  0  0  0  0  0
    3.9042   -3.0417    0.0000 O   0  0  0  0  0  0  0  0  0  0  0  0
    1.3042   -2.2750    0.0000 C   0  0  0  0  0  0  0  0  0  0  0  0
    1.9625   -1.1500    0.0000 C   0  0  0  0  0  0  0  0  0  0  0  0
    5.8667   -1.9250    0.0000 C   0  0  0  0  0  0  0  0  0  0  0  0
    1.9500   -3.4042    0.0000 C   0  0  0  0  0  0  0  0  0  0  0  0
    5.2167   -2.3000    0.0000 C   0  0  0  0  0  0  0  0  0  0  0  0
    0.6625   -1.1500    0.0000 C   0  0  0  0  0  0  0  0  0  0  0  0
    0.6625   -1.9042    0.0000 C   0  0  0  0  0  0  0  0  0  0  0  0
    1.3042   -0.7667    0.0000 C   0  0  0  0  0  0  0  0  0  0  0  0
    6.5167   -2.3042    0.0000 C   0  0  0  0  0  0  0  0  0  0  0  0
    0.0042   -0.7750    0.0000 O   0  0  0  0  0  0  0  0  0  0  0  0
    7.1667   -1.1792    0.0000 C   0  0  0  0  0  0  0  0  0  0  0  0
    5.8667   -1.1792    0.0000 C   0  0  0  0  0  0  0  0  0  0  0  0
    0.0042   -0.0167    0.0000 C   0  0  0  0  0  0  0  0  0  0  0  0
    6.5250   -0.8042    0.0000 C   0  0  0  0  0  0  0  0  0  0  0  0
   -0.6458    0.3583    0.0000 C   0  0  0  0  0  0  0  0  0  0  0  0
  2  1  1  0  0  0  0
  3  2  1  0  0  0  0
  4  3  1  0  0  0  0
  5  1  2  0  0  0  0
  6  1  2  0  0  0  0
  7  2  1  0  0  0  0
  8  4  1  0  0  0  0
  9 19  1  0  0  0  0
 10  4  2  0  0  0  0
 11  7  1  0  0  0  0
 12  7  2  0  0  0  0
 13 15  1  0  0  0  0
 14  1  1  0  0  0  0
 15  8  1  0  0  0  0
 16 18  2  0  0  0  0
 17 11  2  0  0  0  0
 18 12  1  0  0  0  0
 19 13  2  0  0  0  0
 20 16  1  0  0  0  0
 21 24  1  0  0  0  0
 22 13  1  0  0  0  0
 23 20  1  0  0  0  0
 24 22  2  0  0  0  0
 25 23  1  0  0  0  0
 17 16  1  0  0  0  0
  9 21  2  0  0  0  0
M  END
>  <ID> (5732863)
5732863

>  <Supplier> (5732863)
ChemBridge

>  <clogP> (5732863)
1.290000000000000e+000

>  <RB> (5732863)
5

>  <tPSA> (5732863)
8.860000000000002e+001

>  <Hacc> (5732863)
5

>  <Hdon> (5732863)
1

>  <LogSw> (5732863)
-1.651000000000000e+000

>  <Group> (5732863)
3

>  <Core> (5732863)
084

$$$$
5732864
  -ISIS-  03310818222D

 17 18  0  0  0  0  0  0  0  0999 V2000
   -0.2458   -0.4792    0.0000 C   0  0  0  0  0  0  0  0  0  0  0  0
   -0.9083   -0.9625    0.0000 N   0  0  0  0  0  0  0  0  0  0  0  0
    0.5417   -0.7375    0.0000 C   0  0  0  0  0  0  0  0  0  0  0  0
   -0.4958    0.3083    0.0000 N   0  0  0  0  0  0  0  0  0  0  0  0
    1.2167    0.1333    0.0000 N   0  0  0  0  0  0  0  0  0  0  0  0
    2.6417    2.6083    0.0000 C   0  0  0  0  0  0  0  0  0  0  0  0
   -1.3208    0.3083    0.0000 N   0  0  0  0  0  0  0  0  0  0  0  0
   -1.5833   -0.4792    0.0000 C   0  0  0  0  0  0  0  0  0  0  0  0
    2.6417    1.7833    0.0000 C   0  0  0  0  0  0  0  0  0  0  0  0
    1.9375    0.5458    0.0000 C   0  0  0  0  0  0  0  0  0  0  0  0
    0.7125   -1.5417    0.0000 O   0  0  0  0  0  0  0  0  0  0  0  0
    1.9375    1.3708    0.0000 C   0  0  0  0  0  0  0  0  0  0  0  0
    1.9292    3.0208    0.0000 O   0  0  0  0  0  0  0  0  0  0  0  0
    3.3625    3.0208    0.0000 O   0  0  0  0  0  0  0  0  0  0  0  0
    3.3542    1.3708    0.0000 C   0  0  0  0  0  0  0  0  0  0  0  0
    3.3542    0.5458    0.0000 C   0  0  0  0  0  0  0  0  0  0  0  0
    2.6417    0.1333    0.0000 C   0  0  0  0  0  0  0  0  0  0  0  0
  2  1  1  0  0  0  0
  3  1  1  0  0  0  0
  4  1  2  0  0  0  0
  5  3  1  0  0  0  0
  6  9  1  0  0  0  0
  7  4  1  0  0  0  0
  8  2  2  0  0  0  0
  9 12  1  0  0  0  0
 10  5  1  0  0  0  0
 11  3  2  0  0  0  0
 12 10  2  0  0  0  0
 13  6  2  0  0  0  0
 14  6  1  0  0  0  0
 15 16  1  0  0  0  0
 16 17  2  0  0  0  0
 17 10  1  0  0  0  0
  7  8  1  0  0  0  0
  9 15  2  0  0  0  0
M  END
>  <ID> (5732864)
5732864

>  <Supplier> (5732864)
ChemBridge

>  <clogP> (5732864)
1.080000000000000e+000

>  <RB> (5732864)
3

>  <tPSA> (5732864)
1.079700000000000e+002

>  <Hacc> (5732864)
5

>  <Hdon> (5732864)
3

>  <LogSw> (5732864)
-1.817000000000000e+000

>  <Group> (5732864)
3

>  <Core> (5732864)
148

$$$$
5790359
  -ISIS-  03310818222D

 26 28  0  0  0  0  0  0  0  0999 V2000
   -0.0125   -0.0792    0.0000 C   0  0  0  0  0  0  0  0  0  0  0  0
    0.7292   -1.3042    0.0000 N   0  0  3  0  0  0  0  0  0  0  0  0
    1.4667   -0.0792    0.0000 C   0  0  0  0  0  0  0  0  0  0  0  0
    1.4667   -0.8167    0.0000 C   0  0  0  0  0  0  0  0  0  0  0  0
   -0.0125   -0.8167    0.0000 C   0  0  3  0  0  0  0  0  0  0  0  0
   -3.3833   -1.9875    0.0000 N   0  3  0  0  0  0  0  0  0  0  0  0
   -0.7958    0.3125    0.0000 C   0  0  0  0  0  0  0  0  0  0  0  0
   -2.5458   -1.7042    0.0000 C   0  0  0  0  0  0  0  0  0  0  0  0
   -0.8500   -1.1000    0.0000 C   0  0  0  0  0  0  0  0  0  0  0  0
   -4.0500   -1.4000    0.0000 O   0  5  0  0  0  0  0  0  0  0  0  0
    2.0042   -1.0792    0.0000 O   0  0  0  0  0  0  0  0  0  0  0  0
   -0.8458    1.1958    0.0000 C   0  0  0  0  0  0  0  0  0  0  0  0
   -3.5500   -2.8542    0.0000 O   0  0  0  0  0  0  0  0  0  0  0  0
   -1.5208   -0.1667    0.0000 O   0  0  0  0  0  0  0  0  0  0  0  0
    2.2500    0.3125    0.0000 O   0  0  0  0  0  0  0  0  0  0  0  0
   -2.3833   -0.8375    0.0000 C   0  0  0  0  0  0  0  0  0  0  0  0
   -1.8500   -2.2875    0.0000 C   0  0  0  0  0  0  0  0  0  0  0  0
   -1.5500   -0.5167    0.0000 C   0  0  0  0  0  0  0  0  0  0  0  0
   -1.0000   -1.9667    0.0000 C   0  0  0  0  0  0  0  0  0  0  0  0
   -1.6208    1.5458    0.0000 C   0  0  0  0  0  0  0  0  0  0  0  0
   -0.1125    1.7125    0.0000 C   0  0  0  0  0  0  0  0  0  0  0  0
    0.7292   -2.1875    0.0000 C   0  0  0  0  0  0  0  0  0  0  0  0
   -1.0000    2.9333    0.0000 C   0  0  0  0  0  0  0  0  0  0  0  0
   -0.2125    2.5833    0.0000 C   0  0  0  0  0  0  0  0  0  0  0  0
   -1.7125    2.4333    0.0000 C   0  0  0  0  0  0  0  0  0  0  0  0
   -1.0833    3.8125    0.0000 Br  0  0  0  0  0  0  0  0  0  0  0  0
  2  5  1  0  0  0  0
  3  1  2  0  0  0  0
  4  3  1  0  0  0  0
  5  1  1  0  0  0  0
  6  8  1  0  0  0  0
  7  1  1  0  0  0  0
  8 17  1  0  0  0  0
  9  5  1  0  0  0  0
 10  6  1  0  0  0  0
 11  4  2  0  0  0  0
 12  7  1  0  0  0  0
 13  6  2  0  0  0  0
 14  7  2  0  0  0  0
 15  3  1  0  0  0  0
 16 18  1  0  0  0  0
 17 19  2  0  0  0  0
 18  9  2  0  0  0  0
 19  9  1  0  0  0  0
 20 12  1  0  0  0  0
 21 12  2  0  0  0  0
 22  2  1  0  0  0  0
 23 24  2  0  0  0  0
 24 21  1  0  0  0  0
 25 20  2  0  0  0  0
 26 23  1  0  0  0  0
  4  2  1  0  0  0  0
 25 23  1  0  0  0  0
  8 16  2  0  0  0  0
M  CHG  2   6   1  10  -1
M  END
>  <ID> (5790359)
5790359

>  <Supplier> (5790359)
ChemBridge

>  <clogP> (5790359)
3.830000000000000e+000

>  <RB> (5790359)
3

>  <tPSA> (5790359)
1.007500000000000e+002

>  <Hacc> (5790359)
5

>  <Hdon> (5790359)
1

>  <LogSw> (5790359)
-5.902000000000000e+000

>  <Group> (5790359)
1

>  <Core> (5790359)
095

$$$$
7759993
  -ISIS-  03310818272D

 19 21  0  0  0  0  0  0  0  0999 V2000
    4.6500   -2.2542    0.0000 C   0  0  0  0  0  0  0  0  0  0  0  0
    4.6417   -1.4292    0.0000 N   0  0  0  0  0  0  0  0  0  0  0  0
    3.9417   -2.6750    0.0000 N   0  0  3  0  0  0  0  0  0  0  0  0
    3.2167   -2.2542    0.0000 C   0  0  0  0  0  0  0  0  0  0  0  0
    3.2167   -1.4375    0.0000 C   0  0  0  0  0  0  0  0  0  0  0  0
    5.3667   -2.6625    0.0000 N   0  0  0  0  0  0  0  0  0  0  0  0
    6.8750   -2.8542    0.0000 C   0  0  0  0  0  0  0  0  0  0  0  0
    6.1625   -2.4417    0.0000 C   0  0  0  0  0  0  0  0  0  0  0  0
    7.5792   -2.4417    0.0000 C   0  0  0  0  0  0  0  0  0  0  0  0
    3.9375   -3.5000    0.0000 C   0  0  0  0  0  0  0  0  0  0  0  0
    7.5792   -1.6167    0.0000 Cl  0  0  0  0  0  0  0  0  0  0  0  0
    2.5042   -2.6667    0.0000 C   0  0  0  0  0  0  0  0  0  0  0  0
    2.5042   -1.0250    0.0000 C   0  0  0  0  0  0  0  0  0  0  0  0
    6.8667   -3.6792    0.0000 C   0  0  0  0  0  0  0  0  0  0  0  0
    8.2917   -2.8542    0.0000 C   0  0  0  0  0  0  0  0  0  0  0  0
    1.7917   -2.2625    0.0000 C   0  0  0  0  0  0  0  0  0  0  0  0
    1.7917   -1.4375    0.0000 C   0  0  0  0  0  0  0  0  0  0  0  0
    7.5792   -4.0917    0.0000 C   0  0  0  0  0  0  0  0  0  0  0  0
    8.2917   -3.6792    0.0000 C   0  0  0  0  0  0  0  0  0  0  0  0
  2  1  2  0  0  0  0
  3  1  1  0  0  0  0
  4  3  1  0  0  0  0
  5  2  1  0  0  0  0
  6  1  1  0  0  0  0
  7  8  1  0  0  0  0
  8  6  1  0  0  0  0
  9  7  1  0  0  0  0
 10  3  1  0  0  0  0
 11  9  1  0  0  0  0
 12  4  2  0  0  0  0
 13  5  2  0  0  0  0
 14  7  2  0  0  0  0
 15  9  2  0  0  0  0
 16 12  1  0  0  0  0
 17 13  1  0  0  0  0
 18 14  1  0  0  0  0
 19 18  2  0  0  0  0
  5  4  1  0  0  0  0
 16 17  2  0  0  0  0
 19 15  1  0  0  0  0
M  END
>  <ID> (7759993)
7759993

>  <Supplier> (7759993)
ChemBridge

>  <clogP> (7759993)
4.263000000000000e+000

>  <RB> (7759993)
3

>  <tPSA> (7759993)
2.985000000000000e+001

>  <Hacc> (7759993)
2

>  <Hdon> (7759993)
1

>  <LogSw> (7759993)
-4.619000000000000e+000

>  <Group> (7759993)
1

>  <Core> (7759993)
305

$$$$
5330163
  -ISIS-  03310818212D

 19 20  0  0  0  0  0  0  0  0999 V2000
    2.5042   -1.1500    0.0000 C   0  0  0  0  0  0  0  0  0  0  0  0
    1.8542   -1.5167    0.0000 C   0  0  0  0  0  0  0  0  0  0  0  0
    3.1542   -1.5167    0.0000 N   0  0  0  0  0  0  0  0  0  0  0  0
    3.8042   -1.1500    0.0000 C   0  0  0  0  0  0  0  0  0  0  0  0
    1.2042   -1.1500    0.0000 C   0  0  0  0  0  0  0  0  0  0  0  0
    4.4542   -1.5167    0.0000 C   0  0  0  0  0  0  0  0  0  0  0  0
    2.5042   -0.4000    0.0000 O   0  0  0  0  0  0  0  0  0  0  0  0
    3.8042   -0.4000    0.0000 C   0  0  0  0  0  0  0  0  0  0  0  0
    5.1042   -1.1500    0.0000 C   0  0  0  0  0  0  0  0  0  0  0  0
    4.4542   -0.0167    0.0000 C   0  0  0  0  0  0  0  0  0  0  0  0
    1.2042   -0.4000    0.0000 Br  0  0  0  0  0  0  0  0  0  0  0  0
    5.1042   -0.4000    0.0000 C   0  0  0  0  0  0  0  0  0  0  0  0
    1.8542   -2.2667    0.0000 C   0  0  0  0  0  0  0  0  0  0  0  0
    4.4542   -2.2667    0.0000 O   0  0  0  0  0  0  0  0  0  0  0  0
    0.5542   -1.5167    0.0000 C   0  0  0  0  0  0  0  0  0  0  0  0
    4.4542    0.7208    0.0000 C   0  0  0  0  0  0  0  0  0  0  0  0
    5.1042   -2.6500    0.0000 C   0  0  0  0  0  0  0  0  0  0  0  0
    1.2042   -2.6500    0.0000 C   0  0  0  0  0  0  0  0  0  0  0  0
    0.5542   -2.2667    0.0000 C   0  0  0  0  0  0  0  0  0  0  0  0
  2  1  1  0  0  0  0
  3  1  1  0  0  0  0
  4  3  1  0  0  0  0
  5  2  1  0  0  0  0
  6  4  2  0  0  0  0
  7  1  2  0  0  0  0
  8  4  1  0  0  0  0
  9  6  1  0  0  0  0
 10  8  2  0  0  0  0
 11  5  1  0  0  0  0
 12 10  1  0  0  0  0
 13  2  2  0  0  0  0
 14  6  1  0  0  0  0
 15  5  2  0  0  0  0
 16 10  1  0  0  0  0
 17 14  1  0  0  0  0
 18 13  1  0  0  0  0
 19 18  2  0  0  0  0
 15 19  1  0  0  0  0
  9 12  2  0  0  0  0
M  END
>  <ID> (5330163)
5330163

>  <Supplier> (5330163)
ChemBridge

>  <clogP> (5330163)
2.670000000000000e+000

>  <RB> (5330163)
2

>  <tPSA> (5330163)
3.833000000000000e+001

>  <Hacc> (5330163)
2

>  <Hdon> (5330163)
1

>  <LogSw> (5330163)
-3.815000000000000e+000

>  <Group> (5330163)
2

>  <Core> (5330163)
511

$$$$
9065097
  -ISIS-  03310818282D

 27 29  0  0  0  0  0  0  0  0999 V2000
    3.1292    2.6083    0.0000 N   0  0  0  0  0  0  0  0  0  0  0  0
    6.4125    2.2958    0.0000 C   0  0  0  0  0  0  0  0  0  0  0  0
    5.7625    2.6708    0.0000 C   0  0  0  0  0  0  0  0  0  0  0  0
    2.6250    2.0458    0.0000 C   0  0  0  0  0  0  0  0  0  0  0  0
    3.8125    2.2958    0.0000 C   0  0  0  0  0  0  0  0  0  0  0  0
    3.0000    1.3958    0.0000 N   0  0  0  0  0  0  0  0  0  0  0  0
    5.1125    2.2958    0.0000 N   0  0  3  0  0  0  0  0  0  0  0  0
    3.7292    1.5500    0.0000 O   0  0  0  0  0  0  0  0  0  0  0  0
    4.4625    2.6708    0.0000 C   0  0  0  0  0  0  0  0  0  0  0  0
    6.4125    1.5458    0.0000 C   0  0  0  0  0  0  0  0  0  0  0  0
    7.0625    2.6708    0.0000 C   0  0  0  0  0  0  0  0  0  0  0  0
    5.7625    3.4208    0.0000 O   0  0  0  0  0  0  0  0  0  0  0  0
    1.8792    2.1250    0.0000 C   0  0  0  0  0  0  0  0  0  0  0  0
    7.0625    1.1708    0.0000 C   0  0  0  0  0  0  0  0  0  0  0  0
    4.4625    1.1708    0.0000 C   0  0  0  0  0  0  0  0  0  0  0  0
    4.4625    0.4208    0.0000 C   0  0  0  0  0  0  0  0  0  0  0  0
    7.7042    2.2958    0.0000 C   0  0  0  0  0  0  0  0  0  0  0  0
    5.1125    1.5458    0.0000 C   0  0  0  0  0  0  0  0  0  0  0  0
    7.7042    1.5458    0.0000 C   0  0  0  0  0  0  0  0  0  0  0  0
    8.3542    2.6708    0.0000 Cl  0  0  0  0  0  0  0  0  0  0  0  0
    5.7625    1.1708    0.0000 O   0  0  0  0  0  0  0  0  0  0  0  0
    1.5750    2.8083    0.0000 C   0  0  0  0  0  0  0  0  0  0  0  0
    1.4375    1.5208    0.0000 C   0  0  0  0  0  0  0  0  0  0  0  0
    5.7625    0.4208    0.0000 C   0  0  0  0  0  0  0  0  0  0  0  0
    0.6917    1.5958    0.0000 C   0  0  0  0  0  0  0  0  0  0  0  0
    0.8292    2.8958    0.0000 C   0  0  0  0  0  0  0  0  0  0  0  0
    0.3875    2.2833    0.0000 C   0  0  0  0  0  0  0  0  0  0  0  0
  2  3  1  0  0  0  0
  3  7  1  0  0  0  0
  4  1  1  0  0  0  0
  5  1  2  0  0  0  0
  6  4  2  0  0  0  0
  7  9  1  0  0  0  0
  8  5  1  0  0  0  0
  9  5  1  0  0  0  0
 10  2  1  0  0  0  0
 11  2  2  0  0  0  0
 12  3  2  0  0  0  0
 13  4  1  0  0  0  0
 14 10  2  0  0  0  0
 15 18  1  0  0  0  0
 16 15  2  0  0  0  0
 17 11  1  0  0  0  0
 18  7  1  0  0  0  0
 19 17  2  0  0  0  0
 20 17  1  0  0  0  0
 21 10  1  0  0  0  0
 22 13  2  0  0  0  0
 23 13  1  0  0  0  0
 24 21  1  0  0  0  0
 25 23  2  0  0  0  0
 26 22  1  0  0  0  0
 27 25  1  0  0  0  0
  8  6  1  0  0  0  0
 26 27  2  0  0  0  0
 19 14  1  0  0  0  0
M  END
>  <ID> (9065097)
9065097

>  <Supplier> (9065097)
ChemBridge

>  <clogP> (9065097)
3.994000000000000e+000

>  <RB> (9065097)
6

>  <tPSA> (9065097)
6.845999999999998e+001

>  <Hacc> (9065097)
5

>  <Hdon> (9065097)
0

>  <LogSw> (9065097)
-4.988000000000000e+000

>  <Group> (9065097)
2

>  <Core> (9065097)
204

$$$$
7944418
  -ISIS-  03310818272D

 24 25  0  0  0  0  0  0  0  0999 V2000
    6.1542    2.3000    0.0000 C   0  0  0  0  0  0  0  0  0  0  0  0
    7.4542    1.5500    0.0000 C   0  0  0  0  0  0  0  0  0  0  0  0
   11.3542    1.5500    0.0000 N   0  0  3  0  0  0  0  0  0  0  0  0
   12.0375    1.2458    0.0000 C   0  0  0  0  0  0  0  0  0  0  0  0
    6.8042    2.6750    0.0000 C   0  0  0  0  0  0  0  0  0  0  0  0
    6.1542    1.5500    0.0000 C   0  0  0  0  0  0  0  0  0  0  0  0
    8.1042    1.1750    0.0000 C   0  0  0  0  0  0  0  0  0  0  0  0
    6.8042    1.1750    0.0000 C   0  0  0  0  0  0  0  0  0  0  0  0
    7.4542    2.3000    0.0000 C   0  0  0  0  0  0  0  0  0  0  0  0
   12.1917    0.5083    0.0000 O   0  0  0  0  0  0  0  0  0  0  0  0
    8.1042    0.4250    0.0000 O   0  0  0  0  0  0  0  0  0  0  0  0
    8.7542    1.5500    0.0000 N   0  0  0  0  0  0  0  0  0  0  0  0
    5.5042    2.6750    0.0000 O   0  0  0  0  0  0  0  0  0  0  0  0
    6.8042    3.4250    0.0000 O   0  0  0  0  0  0  0  0  0  0  0  0
    5.5042    1.1750    0.0000 O   0  0  0  0  0  0  0  0  0  0  0  0
   10.7042    1.1750    0.0000 C   0  0  0  0  0  0  0  0  0  0  0  0
   11.4292    2.2958    0.0000 C   0  0  0  0  0  0  0  0  0  0  0  0
   12.5417    1.8000    0.0000 C   0  0  0  0  0  0  0  0  0  0  0  0
   10.0542    1.5500    0.0000 C   0  0  0  0  0  0  0  0  0  0  0  0
   12.1667    2.4583    0.0000 C   0  0  0  0  0  0  0  0  0  0  0  0
    9.4042    1.1750    0.0000 C   0  0  0  0  0  0  0  0  0  0  0  0
    4.8542    2.3000    0.0000 C   0  0  0  0  0  0  0  0  0  0  0  0
    7.4542    3.8000    0.0000 C   0  0  0  0  0  0  0  0  0  0  0  0
    5.5042    0.4250    0.0000 C   0  0  0  0  0  0  0  0  0  0  0  0
  2  8  2  0  0  0  0
  3 16  1  0  0  0  0
  4  3  1  0  0  0  0
  5  1  1  0  0  0  0
  6  1  2  0  0  0  0
  7  2  1  0  0  0  0
  8  6  1  0  0  0  0
  9  5  2  0  0  0  0
 10  4  2  0  0  0  0
 11  7  2  0  0  0  0
 12  7  1  0  0  0  0
 13  1  1  0  0  0  0
 14  5  1  0  0  0  0
 15  6  1  0  0  0  0
 16 19  1  0  0  0  0
 17  3  1  0  0  0  0
 18  4  1  0  0  0  0
 19 21  1  0  0  0  0
 20 17  1  0  0  0  0
 21 12  1  0  0  0  0
 22 13  1  0  0  0  0
 23 14  1  0  0  0  0
 24 15  1  0  0  0  0
  2  9  1  0  0  0  0
 18 20  1  0  0  0  0
M  END
>  <ID> (7944418)
7944418

>  <Supplier> (7944418)
ChemBridge

>  <clogP> (7944418)
4.850000000000000e-001

>  <RB> (7944418)
5

>  <tPSA> (7944418)
7.709999999999999e+001

>  <Hacc> (7944418)
5

>  <Hdon> (7944418)
1

>  <LogSw> (7944418)
-2.067000000000000e+000

>  <Group> (7944418)
2

$$$$
7944419
  -ISIS-  03310818272D

 22 25  0  0  0  0  0  0  0  0999 V2000
    4.1167    3.3333    0.0000 N   0  0  3  0  0  0  0  0  0  0  0  0
    3.3667    3.3333    0.0000 C   0  0  0  0  0  0  0  0  0  0  0  0
    4.4917    2.6750    0.0000 C   0  0  0  0  0  0  0  0  0  0  0  0
    2.9917    2.6750    0.0000 C   0  0  0  0  0  0  0  0  0  0  0  0
    5.2417    2.6750    0.0000 C   0  0  0  0  0  0  0  0  0  0  0  0
    1.8667    2.0250    0.0000 C   0  0  0  0  0  0  0  0  0  0  0  0
    2.2417    2.6750    0.0000 C   0  0  0  0  0  0  0  0  0  0  0  0
    4.1167    2.0250    0.0000 C   0  0  0  0  0  0  0  0  0  0  0  0
    2.2417    1.3750    0.0000 C   0  0  0  0  0  0  0  0  0  0  0  0
    1.1292    1.8708    0.0000 O   0  0  0  0  0  0  0  0  0  0  0  0
    2.9917    3.9833    0.0000 O   0  0  0  0  0  0  0  0  0  0  0  0
    1.7417    0.8208    0.0000 O   0  0  0  0  0  0  0  0  0  0  0  0
    1.0542    1.1208    0.0000 C   0  0  0  0  0  0  0  0  0  0  0  0
    5.6167    2.0250    0.0000 C   0  0  0  0  0  0  0  0  0  0  0  0
    3.3667    2.0250    0.0000 C   0  0  0  0  0  0  0  0  0  0  0  0
    2.9917    1.3750    0.0000 C   0  0  0  0  0  0  0  0  0  0  0  0
    4.4917    3.9833    0.0000 C   0  0  0  0  0  0  0  0  0  0  0  0
    4.4917    1.3750    0.0000 C   0  0  0  0  0  0  0  0  0  0  0  0
    5.2417    1.3750    0.0000 C   0  0  0  0  0  0  0  0  0  0  0  0
    5.6167    3.3333    0.0000 C   0  0  0  0  0  0  0  0  0  0  0  0
    5.2417    3.9833    0.0000 C   0  0  0  0  0  0  0  0  0  0  0  0
    5.6167    0.7250    0.0000 C   0  0  0  0  0  0  0  0  0  0  0  0
  2  1  1  0  0  0  0
  3  1  1  0  0  0  0
  4  2  1  0  0  0  0
  5  3  2  0  0  0  0
  6  7  2  0  0  0  0
  7  4  1  0  0  0  0
  8  3  1  0  0  0  0
  9 16  2  0  0  0  0
 10  6  1  0  0  0  0
 11  2  2  0  0  0  0
 12  9  1  0  0  0  0
 13 10  1  0  0  0  0
 14  5  1  0  0  0  0
 15  4  2  0  0  0  0
 16 15  1  0  0  0  0
 17  1  1  0  0  0  0
 18  8  2  0  0  0  0
 19 18  1  0  0  0  0
 20 21  1  0  0  0  0
 21 17  1  0  0  0  0
 22 19  1  0  0  0  0
 20  5  1  0  0  0  0
 14 19  2  0  0  0  0
  6  9  1  0  0  0  0
 13 12  1  0  0  0  0
M  END
>  <ID> (7944419)
7944419

>  <Supplier> (7944419)
ChemBridge

>  <clogP> (7944419)
3.344000000000000e+000

>  <RB> (7944419)
1

>  <tPSA> (7944419)
3.877000000000000e+001

>  <Hacc> (7944419)
3

>  <Hdon> (7944419)
0

>  <LogSw> (7944419)
-4.210000000000000e+000

>  <Group> (7944419)
3

$$$$
7581467
  -ISIS-  03310818262D

 33 36  0  0  0  0  0  0  0  0999 V2000
   -2.6333    1.0500    0.0000 C   0  0  0  0  0  0  0  0  0  0  0  0
   -2.6333    0.3958    0.0000 C   0  0  0  0  0  0  0  0  0  0  0  0
   -3.1958    0.0625    0.0000 N   0  0  0  0  0  0  0  0  0  0  0  0
   -3.1958    1.3833    0.0000 C   0  0  0  0  0  0  0  0  0  0  0  0
   -3.7500    0.3958    0.0000 C   0  0  0  0  0  0  0  0  0  0  0  0
   -3.7500    1.0500    0.0000 C   0  0  0  0  0  0  0  0  0  0  0  0
   -1.4500   -0.9292    0.0000 C   0  0  3  0  0  0  0  0  0  0  0  0
   -0.8958   -0.6000    0.0000 C   0  0  3  0  0  0  0  0  0  0  0  0
   -0.8958    0.0625    0.0000 S   0  0  3  0  0  0  0  0  0  0  0  0
   -2.0500    1.4125    0.0000 C   0  0  0  0  0  0  0  0  0  0  0  0
   -1.4958    1.7458    0.0000 N   0  0  0  0  0  0  0  0  0  0  0  0
   -2.0333    0.0625    0.0000 S   0  0  0  0  0  0  0  0  0  0  0  0
   -4.3333    0.0625    0.0000 C   0  0  0  0  0  0  0  0  0  0  0  0
   -2.0333   -0.6000    0.0000 C   0  0  0  0  0  0  0  0  0  0  0  0
   -3.2125    2.0458    0.0000 C   0  0  0  0  0  0  0  0  0  0  0  0
   -1.4208    0.4458    0.0000 O   0  0  0  0  0  0  0  0  0  0  0  0
   -4.3333   -0.6000    0.0000 C   0  0  0  0  0  0  0  0  0  0  0  0
   -4.8958    0.3958    0.0000 C   0  0  0  0  0  0  0  0  0  0  0  0
   -2.0708   -1.3500    0.0000 O   0  0  0  0  0  0  0  0  0  0  0  0
   -4.8958   -0.9292    0.0000 C   0  0  0  0  0  0  0  0  0  0  0  0
   -5.4583    0.0625    0.0000 C   0  0  0  0  0  0  0  0  0  0  0  0
   -5.4583   -0.6000    0.0000 C   0  0  0  0  0  0  0  0  0  0  0  0
   -1.4500   -1.5875    0.0000 C   0  0  0  0  0  0  0  0  0  0  0  0
   -0.3333    0.3958    0.0000 C   0  0  0  0  0  0  0  0  0  0  0  0
   -0.3333   -0.9292    0.0000 C   0  0  0  0  0  0  0  0  0  0  0  0
   -2.6333    2.3708    0.0000 C   0  0  0  0  0  0  0  0  0  0  0  0
   -3.7708    2.3708    0.0000 C   0  0  0  0  0  0  0  0  0  0  0  0
   -5.9833   -0.8875    0.0000 C   0  0  0  0  0  0  0  0  0  0  0  0
   -0.8708   -1.9167    0.0000 C   0  0  0  0  0  0  0  0  0  0  0  0
   -0.3125   -1.5875    0.0000 C   0  0  0  0  0  0  0  0  0  0  0  0
   -3.7500    3.0333    0.0000 C   0  0  0  0  0  0  0  0  0  0  0  0
   -2.6333    3.0333    0.0000 C   0  0  0  0  0  0  0  0  0  0  0  0
   -3.2125    3.3625    0.0000 C   0  0  0  0  0  0  0  0  0  0  0  0
  2  1  2  0  0  0  0
  3  2  1  0  0  0  0
  4  1  1  0  0  0  0
  5  6  1  0  0  0  0
  6  4  2  0  0  0  0
  7 14  1  0  0  0  0
  8  7  1  0  0  0  0
  9  8  1  0  0  0  0
 10  1  1  0  0  0  0
 11 10  3  0  0  0  0
 12  2  1  0  0  0  0
 13  5  1  0  0  0  0
 14 12  1  0  0  0  0
 15  4  1  0  0  0  0
 16  9  2  0  0  0  0
 17 13  2  0  0  0  0
 18 13  1  0  0  0  0
 19  7  1  0  0  0  0
 20 17  1  0  0  0  0
 21 18  2  0  0  0  0
 22 21  1  0  0  0  0
 23  7  1  0  0  0  0
 24  9  1  0  0  0  0
 25  8  1  0  0  0  0
 26 15  1  0  0  0  0
 27 15  2  0  0  0  0
 28 22  1  0  0  0  0
 29 23  1  0  0  0  0
 30 29  1  0  0  0  0
 31 27  1  0  0  0  0
 32 26  2  0  0  0  0
 33 31  2  0  0  0  0
  5  3  2  0  0  0  0
 32 33  1  0  0  0  0
 22 20  2  0  0  0  0
 25 30  1  0  0  0  0
M  END
>  <ID> (7581467)
7581467

>  <Supplier> (7581467)
ChemBridge

>  <clogP> (7581467)
5.400000000000000e+000

>  <RB> (7581467)
5

>  <tPSA> (7581467)
7.397999999999998e+001

>  <Hacc> (7581467)
4

>  <Hdon> (7581467)
1

>  <LogSw> (7581467)
-6.878000000000000e+000

>  <Group> (7581467)
2

>  <Core> (7581467)
042

$$$$
7996905
  -ISIS-  03310818282D

 25 27  0  0  0  0  0  0  0  0999 V2000
    5.9542    1.6750    0.0000 C   0  0  0  0  0  0  0  0  0  0  0  0
    6.3292    2.3333    0.0000 C   0  0  0  0  0  0  0  0  0  0  0  0
    6.3292    1.0250    0.0000 C   0  0  0  0  0  0  0  0  0  0  0  0
    7.0792    2.3333    0.0000 N   0  0  3  0  0  0  0  0  0  0  0  0
    5.9542    2.9833    0.0000 C   0  0  0  0  0  0  0  0  0  0  0  0
    5.2042    1.6750    0.0000 C   0  0  0  0  0  0  0  0  0  0  0  0
    5.9542    0.3750    0.0000 O   0  0  0  0  0  0  0  0  0  0  0  0
    4.0792    2.3333    0.0000 N   0  0  0  0  0  0  0  0  0  0  0  0
    8.5792    2.3333    0.0000 O   0  0  0  0  0  0  0  0  0  0  0  0
    4.8292    2.3333    0.0000 C   0  0  0  0  0  0  0  0  0  0  0  0
    7.0792    1.0250    0.0000 O   0  0  0  0  0  0  0  0  0  0  0  0
    5.2042    2.9833    0.0000 C   0  0  0  0  0  0  0  0  0  0  0  0
    3.7042    1.6750    0.0000 C   0  0  0  0  0  0  0  0  0  0  0  0
    2.9542    1.6750    0.0000 C   0  0  0  0  0  0  0  0  0  0  0  0
    1.4542    1.6750    0.0000 C   0  0  0  0  0  0  0  0  0  0  0  0
    2.5792    1.0250    0.0000 C   0  0  0  0  0  0  0  0  0  0  0  0
    2.5792    2.3333    0.0000 C   0  0  0  0  0  0  0  0  0  0  0  0
    1.8292    1.0250    0.0000 C   0  0  0  0  0  0  0  0  0  0  0  0
    1.8292    2.3333    0.0000 C   0  0  0  0  0  0  0  0  0  0  0  0
    7.4542    2.9833    0.0000 C   0  0  0  0  0  0  0  0  0  0  0  0
    7.4542    1.6750    0.0000 C   0  0  0  0  0  0  0  0  0  0  0  0
    8.2042    1.6750    0.0000 C   0  0  0  0  0  0  0  0  0  0  0  0
    8.2042    2.9833    0.0000 C   0  0  0  0  0  0  0  0  0  0  0  0
    0.7042    1.6750    0.0000 C   0  0  0  0  0  0  0  0  0  0  0  0
    0.3292    2.3333    0.0000 C   0  0  0  0  0  0  0  0  0  0  0  0
  2  1  1  0  0  0  0
  3  1  1  0  0  0  0
  4  2  1  0  0  0  0
  5  2  2  0  0  0  0
  6  1  2  0  0  0  0
  7  3  2  0  0  0  0
  8 10  1  0  0  0  0
  9 22  1  0  0  0  0
 10  6  1  0  0  0  0
 11  3  1  0  0  0  0
 12 10  2  0  0  0  0
 13  8  1  0  0  0  0
 14 13  1  0  0  0  0
 15 19  1  0  0  0  0
 16 14  2  0  0  0  0
 17 14  1  0  0  0  0
 18 16  1  0  0  0  0
 19 17  2  0  0  0  0
 20  4  1  0  0  0  0
 21  4  1  0  0  0  0
 22 21  1  0  0  0  0
 23 20  1  0  0  0  0
 24 15  1  0  0  0  0
 25 24  1  0  0  0  0
 12  5  1  0  0  0  0
  9 23  1  0  0  0  0
 15 18  2  0  0  0  0
M  END
>  <ID> (7996905)
7996905

>  <Supplier> (7996905)
ChemBridge

>  <clogP> (7996905)
4.080000000000000e+000

>  <RB> (7996905)
5

>  <tPSA> (7996905)
6.180000000000000e+001

>  <Hacc> (7996905)
3

>  <Hdon> (7996905)
2

>  <LogSw> (7996905)
-5.166999999999998e+000

>  <Group> (7996905)
2

>  <Core> (7996905)
450

$$$$
7944415
  -ISIS-  03310818272D

 14 15  0  0  0  0  0  0  0  0999 V2000
    2.3042    1.5000    0.0000 N   0  0  3  0  0  0  0  0  0  0  0  0
    2.9125    1.0625    0.0000 C   0  0  0  0  0  0  0  0  0  0  0  0
    3.5917    1.3708    0.0000 C   0  0  0  0  0  0  0  0  0  0  0  0
    2.3042    2.2500    0.0000 N   0  0  0  0  0  0  0  0  0  0  0  0
    4.2417    0.9958    0.0000 S   0  0  0  0  0  0  0  0  0  0  0  0
    1.5917    1.2708    0.0000 C   0  0  0  0  0  0  0  0  0  0  0  0
    4.8042    1.4958    0.0000 C   0  0  0  0  0  0  0  0  0  0  0  0
    3.7542    2.1000    0.0000 C   0  0  0  0  0  0  0  0  0  0  0  0
    1.1500    1.8750    0.0000 C   0  0  0  0  0  0  0  0  0  0  0  0
    4.5000    2.1833    0.0000 C   0  0  0  0  0  0  0  0  0  0  0  0
    1.5917    2.4833    0.0000 C   0  0  0  0  0  0  0  0  0  0  0  0
    2.8292    0.3208    0.0000 O   0  0  0  0  0  0  0  0  0  0  0  0
    5.5375    1.3375    0.0000 Cl  0  0  0  0  0  0  0  0  0  0  0  0
    0.4000    1.8750    0.0000 C   0  0  0  0  0  0  0  0  0  0  0  0
  2  1  1  0  0  0  0
  3  2  1  0  0  0  0
  4  1  1  0  0  0  0
  5  3  1  0  0  0  0
  6  1  1  0  0  0  0
  7  5  1  0  0  0  0
  8  3  2  0  0  0  0
  9  6  2  0  0  0  0
 10  8  1  0  0  0  0
 11  4  2  0  0  0  0
 12  2  2  0  0  0  0
 13  7  1  0  0  0  0
 14  9  1  0  0  0  0
 11  9  1  0  0  0  0
 10  7  2  0  0  0  0
M  END
>  <ID> (7944415)
7944415

>  <Supplier> (7944415)
ChemBridge

>  <clogP> (7944415)
3.896000000000000e+000

>  <RB> (7944415)
1

>  <tPSA> (7944415)
3.489000000000000e+001

>  <Hacc> (7944415)
2

>  <Hdon> (7944415)
0

>  <LogSw> (7944415)
-4.181000000000000e+000

>  <Group> (7944415)
3

$$$$
6938537
  -ISIS-  03310818242D

 32 36  0  0  0  0  0  0  0  0999 V2000
   -7.6292    0.2958    0.0000 N   0  0  3  0  0  0  0  0  0  0  0  0
   -4.5833   -0.9875    0.0000 C   0  0  0  0  0  0  0  0  0  0  0  0
   -6.5917   -1.5167    0.0000 C   0  0  0  0  0  0  0  0  0  0  0  0
   -6.2667    1.8500    0.0000 N   0  0  0  0  0  0  0  0  0  0  0  0
   11.1167   -0.7542    0.0000 N   0  0  0  0  0  0  0  0  0  0  0  0
    9.4875    0.4333    0.0000 C   0  0  0  0  0  0  0  0  0  0  0  0
   10.4792   -2.7500    0.0000 C   0  0  0  0  0  0  0  0  0  0  0  0
   -4.3458    0.9958    0.0000 C   0  0  0  0  0  0  0  0  0  0  0  0
    7.7292   -0.7292    0.0000 C   0  0  0  0  0  0  0  0  0  0  0  0
    8.3542   -2.7500    0.0000 C   0  0  0  0  0  0  0  0  0  0  0  0
    2.3167   -1.4167    0.0000 C   0  0  0  0  0  0  0  0  0  0  0  0
   -3.0208   -2.3875    0.0000 C   0  0  0  0  0  0  0  0  0  0  0  0
   -9.7167    0.2958    0.0000 C   0  0  0  0  0  0  0  0  0  0  0  0
    0.8292   -2.8167    0.0000 O   0  0  0  0  0  0  0  0  0  0  0  0
   -0.9625   -1.7875    0.0000 C   0  0  0  0  0  0  0  0  0  0  0  0
    5.7000   -0.2875    0.0000 C   0  0  0  0  0  0  0  0  0  0  0  0
  -10.7792   -1.5167    0.0000 C   0  0  0  0  0  0  0  0  0  0  0  0
    4.3375   -1.8500    0.0000 C   0  0  0  0  0  0  0  0  0  0  0  0
    1.4542    0.3958    0.0000 C   0  0  0  0  0  0  0  0  0  0  0  0
  -12.8667   -1.5167    0.0000 C   0  0  0  0  0  0  0  0  0  0  0  0
   -0.5625    0.2333    0.0000 C   0  0  0  0  0  0  0  0  0  0  0  0
    6.9667   -4.3042    0.0000 C   0  0  0  0  0  0  0  0  0  0  0  0
   -7.4292   -3.4500    0.0000 O   0  0  0  0  0  0  0  0  0  0  0  0
    9.5875    2.4833    0.0000 O   0  0  0  0  0  0  0  0  0  0  0  0
   11.7042   -4.3792    0.0000 O   0  0  0  0  0  0  0  0  0  0  0  0
    5.0042   -3.8792    0.0000 C   0  0  0  0  0  0  0  0  0  0  0  0
  -10.7792    2.0500    0.0000 C   0  0  0  0  0  0  0  0  0  0  0  0
  -13.9000    0.2333    0.0000 C   0  0  0  0  0  0  0  0  0  0  0  0
  -12.8667    2.0500    0.0000 C   0  0  0  0  0  0  0  0  0  0  0  0
  -13.9000   -3.3500    0.0000 Cl  0  0  0  0  0  0  0  0  0  0  0  0
   -2.4833    2.0500    0.0000 C   0  0  0  0  0  0  0  0  0  0  0  0
  -16.0000    0.2333    0.0000 C   0  0  0  0  0  0  0  0  0  0  0  0
  2  3  1  0  0  0  0
  3  1  1  0  0  0  0
  4  1  1  0  0  0  0
  5  6  1  0  0  0  0
  6  9  1  0  0  0  0
  7 10  1  0  0  0  0
  8  4  2  0  0  0  0
  9 16  1  0  0  0  0
 10 22  1  0  0  0  0
 11 14  1  0  0  0  0
 12  2  2  0  0  0  0
 13  1  1  0  0  0  0
 14 15  1  0  0  0  0
 15 12  1  0  0  0  0
 16 18  2  0  0  0  0
 17 13  2  0  0  0  0
 18 11  1  0  0  0  0
 19 21  1  0  0  0  0
 20 17  1  0  0  0  0
 21 15  2  0  0  0  0
 22 26  2  0  0  0  0
 23  3  2  0  0  0  0
 24  6  2  0  0  0  0
 25  7  2  0  0  0  0
 26 18  1  0  0  0  0
 27 13  1  0  0  0  0
 28 29  1  0  0  0  0
 29 27  2  0  0  0  0
 30 20  1  0  0  0  0
 31  8  1  0  0  0  0
 32 28  1  0  0  0  0
  8  2  1  0  0  0  0
 28 20  2  0  0  0  0
 19 11  2  0  0  0  0
  9 10  2  0  0  0  0
  7  5  1  0  0  0  0
M  END
>  <ID> (6938537)
6938537

>  <Supplier> (6938537)
ChemBridge

>  <clogP> (6938537)
4.750000000000000e+000

>  <RB> (6938537)
3

>  <tPSA> (6938537)
9.198000000000000e+001

>  <Hacc> (6938537)
5

>  <Hdon> (6938537)
1

>  <LogSw> (6938537)
-6.506000000000000e+000

>  <Group> (6938537)
1

>  <Core> (6938537)
046

$$$$
7944417
  -ISIS-  03310818272D

 19 20  0  0  0  0  0  0  0  0999 V2000
    6.1167    1.9083    0.0000 C   0  0  0  0  0  0  0  0  0  0  0  0
    5.4667    1.5333    0.0000 C   0  0  0  0  0  0  0  0  0  0  0  0
    1.4042    2.8083    0.0000 N   0  0  0  0  0  0  0  0  0  0  0  0
    2.2167    1.9083    0.0000 N   0  0  3  0  0  0  0  0  0  0  0  0
    2.1417    2.6583    0.0000 C   0  0  0  0  0  0  0  0  0  0  0  0
    6.7667    1.5333    0.0000 C   0  0  0  0  0  0  0  0  0  0  0  0
    6.1167    2.6583    0.0000 C   0  0  0  0  0  0  0  0  0  0  0  0
    1.0292    2.1583    0.0000 C   0  0  0  0  0  0  0  0  0  0  0  0
    1.5375    1.6000    0.0000 C   0  0  0  0  0  0  0  0  0  0  0  0
    5.4667    0.7833    0.0000 O   0  0  0  0  0  0  0  0  0  0  0  0
    4.8167    1.9083    0.0000 N   0  0  0  0  0  0  0  0  0  0  0  0
    6.7667    0.7833    0.0000 F   0  0  0  0  0  0  0  0  0  0  0  0
    5.4667    3.0333    0.0000 F   0  0  0  0  0  0  0  0  0  0  0  0
    2.8667    1.5333    0.0000 C   0  0  0  0  0  0  0  0  0  0  0  0
    3.5167    1.9083    0.0000 C   0  0  0  0  0  0  0  0  0  0  0  0
    7.4167    2.6583    0.0000 C   0  0  0  0  0  0  0  0  0  0  0  0
    6.7667    3.0333    0.0000 C   0  0  0  0  0  0  0  0  0  0  0  0
    7.4167    1.9083    0.0000 C   0  0  0  0  0  0  0  0  0  0  0  0
    4.1667    1.5333    0.0000 C   0  0  0  0  0  0  0  0  0  0  0  0
  2  1  1  0  0  0  0
  3  5  2  0  0  0  0
  4 14  1  0  0  0  0
  5  4  1  0  0  0  0
  6  1  1  0  0  0  0
  7  1  2  0  0  0  0
  8  9  2  0  0  0  0
  9  4  1  0  0  0  0
 10  2  2  0  0  0  0
 11  2  1  0  0  0  0
 12  6  1  0  0  0  0
 13  7  1  0  0  0  0
 14 15  1  0  0  0  0
 15 19  1  0  0  0  0
 16 17  2  0  0  0  0
 17  7  1  0  0  0  0
 18  6  2  0  0  0  0
 19 11  1  0  0  0  0
 16 18  1  0  0  0  0
  8  3  1  0  0  0  0
M  END
>  <ID> (7944417)
7944417

>  <Supplier> (7944417)
ChemBridge

>  <clogP> (7944417)
8.560000000000002e-001

>  <RB> (7944417)
5

>  <tPSA> (7944417)
4.692000000000000e+001

>  <Hacc> (7944417)
2

>  <Hdon> (7944417)
1

>  <LogSw> (7944417)
-1.866000000000000e+000

>  <Group> (7944417)
3

$$$$
7944410
  -ISIS-  03310818272D

 21 22  0  0  0  0  0  0  0  0999 V2000
    7.1625    0.5083    0.0000 S   0  0  3  0  0  0  0  0  0  0  0  0
    6.5125    0.8833    0.0000 N   0  0  3  0  0  0  0  0  0  0  0  0
    4.5625    2.0083    0.0000 C   0  0  0  0  0  0  0  0  0  0  0  0
    5.2125    1.6333    0.0000 N   0  0  3  0  0  0  0  0  0  0  0  0
    3.9125    1.6333    0.0000 C   0  0  0  0  0  0  0  0  0  0  0  0
    5.8625    0.5083    0.0000 C   0  0  0  0  0  0  0  0  0  0  0  0
    6.5125    1.6333    0.0000 C   0  0  0  0  0  0  0  0  0  0  0  0
    7.6917    1.0375    0.0000 O   0  0  0  0  0  0  0  0  0  0  0  0
    6.7292   -0.1042    0.0000 O   0  0  0  0  0  0  0  0  0  0  0  0
    5.8625    2.0083    0.0000 C   0  0  0  0  0  0  0  0  0  0  0  0
    5.2125    0.8833    0.0000 C   0  0  0  0  0  0  0  0  0  0  0  0
    4.5625    2.7583    0.0000 O   0  0  0  0  0  0  0  0  0  0  0  0
    3.2625    2.0083    0.0000 C   0  0  0  0  0  0  0  0  0  0  0  0
    7.7375    0.0250    0.0000 C   0  0  0  0  0  0  0  0  0  0  0  0
    2.6125    1.6333    0.0000 C   0  0  0  0  0  0  0  0  0  0  0  0
    3.9125    0.8833    0.0000 C   0  0  0  0  0  0  0  0  0  0  0  0
    1.9667    2.0083    0.0000 O   0  0  0  0  0  0  0  0  0  0  0  0
    3.2625    0.5083    0.0000 C   0  0  0  0  0  0  0  0  0  0  0  0
    2.6125    0.8833    0.0000 C   0  0  0  0  0  0  0  0  0  0  0  0
    1.3167    1.6333    0.0000 C   0  0  0  0  0  0  0  0  0  0  0  0
    0.6667    2.0083    0.0000 C   0  0  0  0  0  0  0  0  0  0  0  0
  2  1  1  0  0  0  0
  3  4  1  0  0  0  0
  4 10  1  0  0  0  0
  5  3  1  0  0  0  0
  6  2  1  0  0  0  0
  7  2  1  0  0  0  0
  8  1  2  0  0  0  0
  9  1  2  0  0  0  0
 10  7  1  0  0  0  0
 11  6  1  0  0  0  0
 12  3  2  0  0  0  0
 13  5  1  0  0  0  0
 14  1  1  0  0  0  0
 15 13  2  0  0  0  0
 16  5  2  0  0  0  0
 17 15  1  0  0  0  0
 18 16  1  0  0  0  0
 19 18  2  0  0  0  0
 20 17  1  0  0  0  0
 21 20  1  0  0  0  0
  4 11  1  0  0  0  0
 15 19  1  0  0  0  0
M  END
>  <ID> (7944410)
7944410

>  <Supplier> (7944410)
ChemBridge

>  <clogP> (7944410)
1.522000000000000e+000

>  <RB> (7944410)
1

>  <tPSA> (7944410)
6.691999999999999e+001

>  <Hacc> (7944410)
5

>  <Hdon> (7944410)
0

>  <LogSw> (7944410)
-2.778000000000000e+000

>  <Group> (7944410)
3

>  <Core> (7944410)
170

$$$$
5965442
  -ISIS-  03310818232D

 24 25  0  0  0  0  0  0  0  0999 V2000
    4.1667    1.3458    0.0000 N   0  0  3  0  0  0  0  0  0  0  0  0
    2.2292    3.4708    0.0000 C   0  0  0  0  0  0  0  0  0  0  0  0
    2.9542    3.6458    0.0000 C   0  0  0  0  0  0  0  0  0  0  0  0
    2.8667    0.5958    0.0000 N   0  0  3  0  0  0  0  0  0  0  0  0
    4.1667    0.5958    0.0000 C   0  0  0  0  0  0  0  0  0  0  0  0
    3.5167    1.7208    0.0000 C   0  0  0  0  0  0  0  0  0  0  0  0
    1.7167    4.0042    0.0000 O   0  0  0  0  0  0  0  0  0  0  0  0
    3.4750    3.0958    0.0000 O   0  0  0  0  0  0  0  0  0  0  0  0
    4.8125    1.7208    0.0000 C   0  0  3  0  0  0  0  0  0  0  0  0
    2.2167    0.2208    0.0000 C   0  0  0  0  0  0  0  0  0  0  0  0
    3.5167    0.2208    0.0000 C   0  0  0  0  0  0  0  0  0  0  0  0
    2.8667    1.3458    0.0000 C   0  0  0  0  0  0  0  0  0  0  0  0
    3.1750    4.3542    0.0000 O   0  0  0  0  0  0  0  0  0  0  0  0
    2.0167    2.7500    0.0000 O   0  0  0  0  0  0  0  0  0  0  0  0
    1.5667    0.5958    0.0000 C   0  0  0  0  0  0  0  0  0  0  0  0
    5.5000    1.4125    0.0000 C   0  0  0  0  0  0  0  0  0  0  0  0
    4.8917    2.4625    0.0000 C   0  0  0  0  0  0  0  0  0  0  0  0
    1.5667    1.3458    0.0000 C   0  0  0  0  0  0  0  0  0  0  0  0
    0.9167    0.2208    0.0000 C   0  0  0  0  0  0  0  0  0  0  0  0
    5.6250    2.6208    0.0000 C   0  0  0  0  0  0  0  0  0  0  0  0
    6.0000    1.9708    0.0000 C   0  0  0  0  0  0  0  0  0  0  0  0
    0.2667    0.5958    0.0000 C   0  0  0  0  0  0  0  0  0  0  0  0
    0.9167    1.7208    0.0000 C   0  0  0  0  0  0  0  0  0  0  0  0
    0.2667    1.3458    0.0000 C   0  0  0  0  0  0  0  0  0  0  0  0
  3  2  1  0  0  0  0
  4 12  1  0  0  0  0
  5  1  1  0  0  0  0
  6  1  1  0  0  0  0
  7  2  2  0  0  0  0
  8  3  2  0  0  0  0
  9  1  1  0  0  0  0
 10  4  1  0  0  0  0
 11  5  1  0  0  0  0
 12  6  1  0  0  0  0
 13  3  1  0  0  0  0
 14  2  1  0  0  0  0
 15 10  1  0  0  0  0
 16  9  1  0  0  0  0
 17  9  1  0  0  0  0
 18 15  2  0  0  0  0
 19 15  1  0  0  0  0
 20 17  1  0  0  0  0
 21 16  1  0  0  0  0
 22 19  2  0  0  0  0
 23 18  1  0  0  0  0
 24 22  1  0  0  0  0
 11  4  1  0  0  0  0
 20 21  1  0  0  0  0
 23 24  2  0  0  0  0
M  END
>  <ID> (5965442)
5965442

>  <Supplier> (5965442)
ChemBridge

>  <clogP> (5965442)
1.160000000000000e+000

>  <RB> (5965442)
3

>  <tPSA> (5965442)
8.108000000000001e+001

>  <Hacc> (5965442)
6

>  <Hdon> (5965442)
2

>  <LogSw> (5965442)
-9.660000000000000e-001

>  <Group> (5965442)
3

>  <Core> (5965442)
164

$$$$
7944413
  -ISIS-  03310818272D

 30 33  0  0  0  0  0  0  0  0999 V2000
    3.6417    3.0958    0.0000 C   0  0  0  0  0  0  0  0  0  0  0  0
    4.3542    2.8625    0.0000 C   0  0  0  0  0  0  0  0  0  0  0  0
    4.8000    3.4708    0.0000 C   0  0  0  0  0  0  0  0  0  0  0  0
    3.6417    3.8458    0.0000 S   0  0  0  0  0  0  0  0  0  0  0  0
    4.3542    4.0667    0.0000 C   0  0  0  0  0  0  0  0  0  0  0  0
    3.0375    2.6583    0.0000 N   0  0  0  0  0  0  0  0  0  0  0  0
    2.3500    2.9583    0.0000 C   0  0  0  0  0  0  0  0  0  0  0  0
    4.5875    2.1500    0.0000 C   0  0  0  0  0  0  0  0  0  0  0  0
    1.7417    2.5208    0.0000 C   0  0  0  0  0  0  0  0  0  0  0  0
    5.3167    1.9958    0.0000 N   0  0  0  0  0  0  0  0  0  0  0  0
    1.0292    2.7500    0.0000 O   0  0  0  0  0  0  0  0  0  0  0  0
    5.5500    3.4708    0.0000 C   0  0  0  0  0  0  0  0  0  0  0  0
    2.2750    3.7083    0.0000 O   0  0  0  0  0  0  0  0  0  0  0  0
    1.7417    1.7708    0.0000 C   0  0  0  0  0  0  0  0  0  0  0  0
    4.0875    1.5958    0.0000 O   0  0  0  0  0  0  0  0  0  0  0  0
    0.5917    2.1458    0.0000 C   0  0  0  0  0  0  0  0  0  0  0  0
    7.2542    0.2583    0.0000 N   0  0  0  0  0  0  0  0  0  0  0  0
    1.0292    1.5375    0.0000 C   0  0  0  0  0  0  0  0  0  0  0  0
    6.2875    1.1250    0.0000 C   0  0  0  0  0  0  0  0  0  0  0  0
    5.5542    1.2833    0.0000 C   0  0  0  0  0  0  0  0  0  0  0  0
    4.5875    4.7792    0.0000 C   0  0  0  0  0  0  0  0  0  0  0  0
    6.5167    0.4125    0.0000 C   0  0  0  0  0  0  0  0  0  0  0  0
    7.7542    0.8125    0.0000 C   0  0  0  0  0  0  0  0  0  0  0  0
    5.9250    2.8208    0.0000 C   0  0  0  0  0  0  0  0  0  0  0  0
    5.9250    4.1167    0.0000 C   0  0  0  0  0  0  0  0  0  0  0  0
    6.7917    1.6833    0.0000 C   0  0  0  0  0  0  0  0  0  0  0  0
    7.5250    1.5250    0.0000 C   0  0  0  0  0  0  0  0  0  0  0  0
    6.6750    4.1167    0.0000 C   0  0  0  0  0  0  0  0  0  0  0  0
    6.6750    2.8208    0.0000 C   0  0  0  0  0  0  0  0  0  0  0  0
    7.0500    3.4708    0.0000 C   0  0  0  0  0  0  0  0  0  0  0  0
  2  1  2  0  0  0  0
  3  2  1  0  0  0  0
  4  1  1  0  0  0  0
  5  4  1  0  0  0  0
  6  1  1  0  0  0  0
  7  6  1  0  0  0  0
  8  2  1  0  0  0  0
  9  7  1  0  0  0  0
 10  8  1  0  0  0  0
 11  9  1  0  0  0  0
 12  3  1  0  0  0  0
 13  7  2  0  0  0  0
 14  9  2  0  0  0  0
 15  8  2  0  0  0  0
 16 11  1  0  0  0  0
 17 22  2  0  0  0  0
 18 14  1  0  0  0  0
 19 20  1  0  0  0  0
 20 10  1  0  0  0  0
 21  5  1  0  0  0  0
 22 19  1  0  0  0  0
 23 27  2  0  0  0  0
 24 12  1  0  0  0  0
 25 12  2  0  0  0  0
 26 19  2  0  0  0  0
 27 26  1  0  0  0  0
 28 25  1  0  0  0  0
 29 24  2  0  0  0  0
 30 28  2  0  0  0  0
  5  3  2  0  0  0  0
 18 16  2  0  0  0  0
 29 30  1  0  0  0  0
 23 17  1  0  0  0  0
M  END
>  <ID> (7944413)
7944413

>  <Supplier> (7944413)
ChemBridge

>  <clogP> (7944413)
3.106000000000000e+000

>  <RB> (7944413)
6

>  <tPSA> (7944413)
8.423000000000000e+001

>  <Hacc> (7944413)
4

>  <Hdon> (7944413)
2

>  <LogSw> (7944413)
-3.596000000000000e+000

>  <Group> (7944413)
3

>  <Core> (7944413)
097

$$$$
7936583
  -ISIS-  03310818272D

 29 31  0  0  0  0  0  0  0  0999 V2000
    4.3417    1.0500    0.0000 C   0  0  0  0  0  0  0  0  0  0  0  0
    4.0375    1.7333    0.0000 C   0  0  0  0  0  0  0  0  0  0  0  0
    3.2917    1.6583    0.0000 N   0  0  0  0  0  0  0  0  0  0  0  0
    5.0750    0.8958    0.0000 C   0  0  0  0  0  0  0  0  0  0  0  0
    3.1375    0.9208    0.0000 N   0  0  3  0  0  0  0  0  0  0  0  0
    3.7875    0.5458    0.0000 C   0  0  0  0  0  0  0  0  0  0  0  0
    5.3042    0.1833    0.0000 O   0  0  0  0  0  0  0  0  0  0  0  0
    4.4125    2.3833    0.0000 C   0  0  0  0  0  0  0  0  0  0  0  0
    1.0042   -0.7375    0.0000 N   0  0  0  0  0  0  0  0  0  0  0  0
    6.0417    0.0250    0.0000 C   0  0  0  0  0  0  0  0  0  0  0  0
    6.2750   -0.6875    0.0000 C   0  0  0  0  0  0  0  0  0  0  0  0
    1.6875   -0.4292    0.0000 C   0  0  0  0  0  0  0  0  0  0  0  0
    5.5792    1.4500    0.0000 O   0  0  0  0  0  0  0  0  0  0  0  0
    5.1625    2.3833    0.0000 C   0  0  0  0  0  0  0  0  0  0  0  0
    7.0042   -0.8417    0.0000 C   0  0  0  0  0  0  0  0  0  0  0  0
    6.5417    0.5833    0.0000 C   0  0  0  0  0  0  0  0  0  0  0  0
    8.7417    0.1125    0.0000 O   0  0  0  0  0  0  0  0  0  0  0  0
    7.5042   -0.2875    0.0000 C   0  0  0  0  0  0  0  0  0  0  0  0
    8.2417   -0.4417    0.0000 C   0  0  0  0  0  0  0  0  0  0  0  0
    2.3667   -0.1292    0.0000 C   0  0  0  0  0  0  0  0  0  0  0  0
    5.5375    3.0333    0.0000 C   0  0  0  0  0  0  0  0  0  0  0  0
    2.4417    0.6208    0.0000 C   0  0  0  0  0  0  0  0  0  0  0  0
    7.2792    0.4250    0.0000 C   0  0  0  0  0  0  0  0  0  0  0  0
    5.7667   -1.2417    0.0000 O   0  0  0  0  0  0  0  0  0  0  0  0
    6.2875    3.0333    0.0000 Br  0  0  0  0  0  0  0  0  0  0  0  0
    4.0375    3.0333    0.0000 C   0  0  0  0  0  0  0  0  0  0  0  0
    4.4125    3.6833    0.0000 C   0  0  0  0  0  0  0  0  0  0  0  0
    5.1625    3.6833    0.0000 C   0  0  0  0  0  0  0  0  0  0  0  0
    6.0042   -1.9542    0.0000 C   0  0  0  0  0  0  0  0  0  0  0  0
  2  1  1  0  0  0  0
  3  2  2  0  0  0  0
  4  1  1  0  0  0  0
  5  6  1  0  0  0  0
  6  1  2  0  0  0  0
  7  4  1  0  0  0  0
  8  2  1  0  0  0  0
  9 12  3  0  0  0  0
 10  7  1  0  0  0  0
 11 10  1  0  0  0  0
 12 20  1  0  0  0  0
 13  4  2  0  0  0  0
 14  8  2  0  0  0  0
 15 11  2  0  0  0  0
 16 10  2  0  0  0  0
 17 19  2  0  0  0  0
 18 23  2  0  0  0  0
 19 18  1  0  0  0  0
 20 22  1  0  0  0  0
 21 14  1  0  0  0  0
 22  5  1  0  0  0  0
 23 16  1  0  0  0  0
 24 11  1  0  0  0  0
 25 21  1  0  0  0  0
 26  8  1  0  0  0  0
 27 26  2  0  0  0  0
 28 27  1  0  0  0  0
 29 24  1  0  0  0  0
  5  3  1  0  0  0  0
 28 21  2  0  0  0  0
 18 15  1  0  0  0  0
M  END
>  <ID> (7936583)
7936583

>  <Supplier> (7936583)
ChemBridge

>  <clogP> (7936583)
4.043000000000000e+000

>  <RB> (7936583)
7

>  <tPSA> (7936583)
9.421000000000001e+001

>  <Hacc> (7936583)
6

>  <Hdon> (7936583)
0

>  <LogSw> (7936583)
-6.229000000000000e+000

>  <Group> (7936583)
1

>  <Core> (7936583)
327

$$$$
7936582
  -ISIS-  03310818272D

 17 17  0  0  0  0  0  0  0  0999 V2000
   -1.5625   -2.8375    0.0000 C   0  0  3  0  0  0  0  0  0  0  0  0
   -2.3625   -2.4375    0.0000 C   0  0  3  0  0  0  0  0  0  0  0  0
    0.9500   -1.4500    0.0000 C   0  0  0  0  0  0  0  0  0  0  0  0
   -0.1208   -1.7375    0.0000 N   0  0  0  0  0  0  0  0  0  0  0  0
   -0.4125   -2.8042    0.0000 C   0  0  3  0  0  0  0  0  0  0  0  0
   -1.6500   -1.9667    0.0000 C   0  0  0  0  0  0  0  0  0  0  0  0
   -2.8333   -0.3500    0.0000 C   0  0  0  0  0  0  0  0  0  0  0  0
    1.7167   -2.2167    0.0000 O   0  0  0  0  0  0  0  0  0  0  0  0
   -2.3333   -1.2042    0.0000 C   0  0  3  0  0  0  0  0  0  0  0  0
   -3.2000   -2.7000    0.0000 C   0  0  0  0  0  0  0  0  0  0  0  0
    1.2375   -0.3792    0.0000 C   0  0  0  0  0  0  0  0  0  0  0  0
    2.2667   -0.0875    0.0000 N   0  0  3  0  0  0  0  0  0  0  0  0
   -3.1708   -1.9000    0.0000 C   0  0  0  0  0  0  0  0  0  0  0  0
   -1.2458    1.2458    0.0000 Cl  0  0  0  0  0  0  0  0  0  0  0  0
    0.4542   -3.5667    0.0000 C   0  0  0  0  0  0  0  0  0  0  0  0
    2.6000    0.9500    0.0000 C   0  0  0  0  0  0  0  0  0  0  0  0
    3.0042   -0.8875    0.0000 C   0  0  0  0  0  0  0  0  0  0  0  0
  2  1  1  0  0  0  0
  3  4  1  0  0  0  0
  4  5  1  0  0  0  0
  5  1  1  0  0  0  0
  6  1  1  0  0  0  0
  7  2  1  0  0  0  0
  8  3  2  0  0  0  0
  9  6  1  0  0  0  0
 10  2  1  0  0  0  0
 11  3  1  0  0  0  0
 12 11  1  0  0  0  0
 13  9  1  0  0  0  0
 15  5  1  0  0  0  0
 16 12  1  0  0  0  0
 17 12  1  0  0  0  0
  7  9  1  0  0  0  0
 10 13  1  0  0  0  0
M  END
>  <ID> (7936582)
7936582

>  <Supplier> (7936582)
ChemBridge

>  <clogP> (7936582)
1.030000000000000e+000

>  <RB> (7936582)
3

>  <tPSA> (7936582)
3.234000000000000e+001

>  <Hacc> (7936582)
2

>  <Hdon> (7936582)
1

>  <LogSw> (7936582)
-1.717000000000000e+000

>  <Group> (7936582)
2

$$$$
5720987
  -ISIS-  03310818222D

 26 27  0  0  0  0  0  0  0  0999 V2000
    2.1875   -1.1375    0.0000 C   0  0  0  0  0  0  0  0  0  0  0  0
    7.9042    0.5000    0.0000 C   0  0  0  0  0  0  0  0  0  0  0  0
    1.4792   -0.7167    0.0000 C   0  0  0  0  0  0  0  0  0  0  0  0
    2.9042   -0.7167    0.0000 C   0  0  0  0  0  0  0  0  0  0  0  0
    4.3375   -0.7167    0.0000 N   0  0  0  0  0  0  0  0  0  0  0  0
    7.2000    0.0833    0.0000 C   0  0  0  0  0  0  0  0  0  0  0  0
    0.7667   -1.1375    0.0000 N   0  0  0  0  0  0  0  0  0  0  0  0
    3.6167   -1.1375    0.0000 N   0  0  0  0  0  0  0  0  0  0  0  0
    7.9042    1.3208    0.0000 O   0  0  0  0  0  0  0  0  0  0  0  0
   -1.3708   -2.3667    0.0000 N   0  0  0  0  0  0  0  0  0  0  0  0
    1.4792    0.0958    0.0000 O   0  0  0  0  0  0  0  0  0  0  0  0
    2.9042    0.0958    0.0000 O   0  0  0  0  0  0  0  0  0  0  0  0
    6.4875    0.5000    0.0000 C   0  0  0  0  0  0  0  0  0  0  0  0
    7.2000   -0.7292    0.0000 C   0  0  0  0  0  0  0  0  0  0  0  0
   -0.6500   -1.1375    0.0000 C   0  0  0  0  0  0  0  0  0  0  0  0
    5.0500   -1.1375    0.0000 C   0  0  0  0  0  0  0  0  0  0  0  0
    0.0500   -0.7167    0.0000 C   0  0  0  0  0  0  0  0  0  0  0  0
    5.7667   -0.7167    0.0000 C   0  0  0  0  0  0  0  0  0  0  0  0
    8.6167    0.0833    0.0000 O   0  0  0  0  0  0  0  0  0  0  0  0
    5.7542    0.0958    0.0000 C   0  0  0  0  0  0  0  0  0  0  0  0
    6.4792   -1.1375    0.0000 C   0  0  0  0  0  0  0  0  0  0  0  0
   -0.6500   -1.9542    0.0000 C   0  0  0  0  0  0  0  0  0  0  0  0
   -2.0833   -1.9542    0.0000 C   0  0  0  0  0  0  0  0  0  0  0  0
   -1.3708   -0.7167    0.0000 C   0  0  0  0  0  0  0  0  0  0  0  0
    9.3375    0.4958    0.0000 C   0  0  0  0  0  0  0  0  0  0  0  0
   -2.0833   -1.1375    0.0000 C   0  0  0  0  0  0  0  0  0  0  0  0
  2  6  1  0  0  0  0
  3  1  1  0  0  0  0
  4  1  1  0  0  0  0
  5  8  1  0  0  0  0
  6 14  2  0  0  0  0
  7  3  1  0  0  0  0
  8  4  1  0  0  0  0
  9  2  2  0  0  0  0
 10 22  2  0  0  0  0
 11  3  2  0  0  0  0
 12  4  2  0  0  0  0
 13 20  2  0  0  0  0
 14 21  1  0  0  0  0
 15 17  1  0  0  0  0
 16  5  2  0  0  0  0
 17  7  1  0  0  0  0
 18 16  1  0  0  0  0
 19  2  1  0  0  0  0
 20 18  1  0  0  0  0
 21 18  2  0  0  0  0
 22 15  1  0  0  0  0
 23 26  2  0  0  0  0
 24 15  2  0  0  0  0
 25 19  1  0  0  0  0
 26 24  1  0  0  0  0
  6 13  1  0  0  0  0
 10 23  1  0  0  0  0
M  END
>  <ID> (5720987)
5720987

>  <Supplier> (5720987)
ChemBridge

>  <clogP> (5720987)
5.700000000000001e-001

>  <RB> (5720987)
7

>  <tPSA> (5720987)
1.097500000000000e+002

>  <Hacc> (5720987)
6

>  <Hdon> (5720987)
2

>  <LogSw> (5720987)
-9.710000000000001e-001

>  <Group> (5720987)
2

>  <Core> (5720987)
216

$$$$
7936587
  -ISIS-  03310818272D

 25 27  0  0  0  0  0  0  0  0999 V2000
    3.7917    1.3208    0.0000 N   0  0  0  0  0  0  0  0  0  0  0  0
    3.7917    2.0708    0.0000 C   0  0  0  0  0  0  0  0  0  0  0  0
    2.4917    1.3208    0.0000 C   0  0  0  0  0  0  0  0  0  0  0  0
    3.1417    0.9458    0.0000 C   0  0  0  0  0  0  0  0  0  0  0  0
    2.4917    2.0708    0.0000 C   0  0  0  0  0  0  0  0  0  0  0  0
    4.4417    2.4458    0.0000 N   0  0  0  0  0  0  0  0  0  0  0  0
    3.1417    2.4458    0.0000 N   0  0  0  0  0  0  0  0  0  0  0  0
    5.0917    2.0708    0.0000 C   0  0  0  0  0  0  0  0  0  0  0  0
    1.8417    0.9458    0.0000 C   0  0  0  0  0  0  0  0  0  0  0  0
    1.8417    2.4458    0.0000 C   0  0  0  0  0  0  0  0  0  0  0  0
    1.1917    1.3208    0.0000 C   0  0  0  0  0  0  0  0  0  0  0  0
    1.1917    2.0708    0.0000 C   0  0  0  0  0  0  0  0  0  0  0  0
    5.7417    2.4458    0.0000 C   0  0  0  0  0  0  0  0  0  0  0  0
    3.1417    0.1958    0.0000 O   0  0  0  0  0  0  0  0  0  0  0  0
    5.0917    1.3208    0.0000 O   0  0  0  0  0  0  0  0  0  0  0  0
    6.3917    2.0708    0.0000 C   0  0  0  0  0  0  0  0  0  0  0  0
    5.7417    3.1958    0.0000 C   0  0  0  0  0  0  0  0  0  0  0  0
    7.0417    3.1958    0.0000 C   0  0  0  0  0  0  0  0  0  0  0  0
    0.5417    0.9458    0.0000 O   0  0  0  0  0  0  0  0  0  0  0  0
    0.5417    2.4458    0.0000 O   0  0  0  0  0  0  0  0  0  0  0  0
    6.3917    3.5708    0.0000 C   0  0  0  0  0  0  0  0  0  0  0  0
    7.0417    2.4458    0.0000 C   0  0  0  0  0  0  0  0  0  0  0  0
    7.6917    3.5708    0.0000 F   0  0  0  0  0  0  0  0  0  0  0  0
    0.5417    0.1958    0.0000 C   0  0  0  0  0  0  0  0  0  0  0  0
    0.5417    3.1958    0.0000 C   0  0  0  0  0  0  0  0  0  0  0  0
  2  1  2  0  0  0  0
  3  4  1  0  0  0  0
  4  1  1  0  0  0  0
  5  3  1  0  0  0  0
  6  2  1  0  0  0  0
  7  2  1  0  0  0  0
  8  6  1  0  0  0  0
  9  3  2  0  0  0  0
 10  5  2  0  0  0  0
 11  9  1  0  0  0  0
 12 11  2  0  0  0  0
 13  8  1  0  0  0  0
 14  4  2  0  0  0  0
 15  8  2  0  0  0  0
 16 13  2  0  0  0  0
 17 13  1  0  0  0  0
 18 21  1  0  0  0  0
 19 11  1  0  0  0  0
 20 12  1  0  0  0  0
 21 17  2  0  0  0  0
 22 16  1  0  0  0  0
 23 18  1  0  0  0  0
 24 19  1  0  0  0  0
 25 20  1  0  0  0  0
  5  7  1  0  0  0  0
 12 10  1  0  0  0  0
 22 18  2  0  0  0  0
M  END
>  <ID> (7936587)
7936587

>  <Supplier> (7936587)
ChemBridge

>  <clogP> (7936587)
1.276000000000000e+000

>  <RB> (7936587)
2

>  <tPSA> (7936587)
9.331000000000000e+001

>  <Hacc> (7936587)
5

>  <Hdon> (7936587)
2

>  <LogSw> (7936587)
-2.793000000000000e+000

>  <Group> (7936587)
3

$$$$
7936586
  -ISIS-  03310818272D

 29 30  0  0  0  0  0  0  0  0999 V2000
    8.3667    3.4250    0.0000 S   0  0  3  0  0  0  0  0  0  0  0  0
    7.7167    3.0500    0.0000 N   0  0  3  0  0  0  0  0  0  0  0  0
    7.0667    3.4250    0.0000 C   0  0  0  0  0  0  0  0  0  0  0  0
    7.7167    2.3000    0.0000 C   0  0  0  0  0  0  0  0  0  0  0  0
    6.4250    3.0500    0.0000 C   0  0  0  0  0  0  0  0  0  0  0  0
    7.0667    1.9250    0.0000 C   0  0  0  0  0  0  0  0  0  0  0  0
    8.1792    4.1417    0.0000 O   0  0  0  0  0  0  0  0  0  0  0  0
    8.6875    2.7458    0.0000 O   0  0  0  0  0  0  0  0  0  0  0  0
    7.0667    1.1750    0.0000 C   0  0  0  0  0  0  0  0  0  0  0  0
    6.4250    0.8000    0.0000 C   0  0  0  0  0  0  0  0  0  0  0  0
    6.4250    2.3000    0.0000 O   0  0  0  0  0  0  0  0  0  0  0  0
    6.4250    0.0500    0.0000 O   0  0  0  0  0  0  0  0  0  0  0  0
    5.7750    3.4250    0.0000 N   0  0  0  0  0  0  0  0  0  0  0  0
    9.0750    3.6833    0.0000 C   0  0  0  0  0  0  0  0  0  0  0  0
    1.8750    3.4250    0.0000 C   0  0  0  0  0  0  0  0  0  0  0  0
    1.2250    3.0500    0.0000 C   0  0  0  0  0  0  0  0  0  0  0  0
    0.5792    3.4250    0.0000 Cl  0  0  0  0  0  0  0  0  0  0  0  0
    3.8250    3.0500    0.0000 S   0  0  0  0  0  0  0  0  0  0  0  0
    2.5250    3.0500    0.0000 C   0  0  0  0  0  0  0  0  0  0  0  0
    8.3667    1.9250    0.0000 C   0  0  0  0  0  0  0  0  0  0  0  0
    7.7167    0.8000    0.0000 C   0  0  0  0  0  0  0  0  0  0  0  0
    8.3667    1.1750    0.0000 C   0  0  0  0  0  0  0  0  0  0  0  0
    1.8750    1.9250    0.0000 C   0  0  0  0  0  0  0  0  0  0  0  0
    3.1750    3.4250    0.0000 C   0  0  0  0  0  0  0  0  0  0  0  0
    5.7750    1.1750    0.0000 C   0  0  0  0  0  0  0  0  0  0  0  0
    5.1250    3.0500    0.0000 C   0  0  0  0  0  0  0  0  0  0  0  0
    1.2250    2.3000    0.0000 C   0  0  0  0  0  0  0  0  0  0  0  0
    2.5250    2.3000    0.0000 C   0  0  0  0  0  0  0  0  0  0  0  0
    4.4750    3.4250    0.0000 C   0  0  0  0  0  0  0  0  0  0  0  0
  2  1  1  0  0  0  0
  3  2  1  0  0  0  0
  4  2  1  0  0  0  0
  5  3  1  0  0  0  0
  6  4  2  0  0  0  0
  7  1  2  0  0  0  0
  8  1  2  0  0  0  0
  9  6  1  0  0  0  0
 10  9  1  0  0  0  0
 11  5  2  0  0  0  0
 12 10  2  0  0  0  0
 13  5  1  0  0  0  0
 14  1  1  0  0  0  0
 15 19  1  0  0  0  0
 16 15  2  0  0  0  0
 17 16  1  0  0  0  0
 18 29  1  0  0  0  0
 19 24  1  0  0  0  0
 20  4  1  0  0  0  0
 21 22  1  0  0  0  0
 22 20  2  0  0  0  0
 23 28  1  0  0  0  0
 24 18  1  0  0  0  0
 25 10  1  0  0  0  0
 26 13  1  0  0  0  0
 27 23  2  0  0  0  0
 28 19  2  0  0  0  0
 29 26  1  0  0  0  0
  9 21  2  0  0  0  0
 27 16  1  0  0  0  0
M  END
>  <ID> (7936586)
7936586

>  <Supplier> (7936586)
ChemBridge

>  <clogP> (7936586)
3.769000000000000e+000

>  <RB> (7936586)
9

>  <tPSA> (7936586)
8.355000000000010e+001

>  <Hacc> (7936586)
4

>  <Hdon> (7936586)
1

>  <LogSw> (7936586)
-5.735000000000000e+000

>  <Group> (7936586)
1

>  <Core> (7936586)
084

$$$$
7936584
  -ISIS-  03310818272D

 22 24  0  0  0  0  0  0  0  0999 V2000
    5.1125    3.0208    0.0000 C   0  0  3  0  0  0  0  0  0  0  0  0
    5.4875    2.3625    0.0000 C   0  0  3  0  0  0  0  0  0  0  0  0
    5.8625    3.0208    0.0000 C   0  0  0  0  0  0  0  0  0  0  0  0
    3.5417    1.2375    0.0000 C   0  0  0  0  0  0  0  0  0  0  0  0
    5.4875    1.6125    0.0000 C   0  0  0  0  0  0  0  0  0  0  0  0
    4.1917    1.6125    0.0000 N   0  0  0  0  0  0  0  0  0  0  0  0
    4.8417    1.2375    0.0000 C   0  0  0  0  0  0  0  0  0  0  0  0
    2.8917    1.6125    0.0000 N   0  0  0  0  0  0  0  0  0  0  0  0
    4.9792    3.7500    0.0000 Cl  0  0  0  0  0  0  0  0  0  0  0  0
    4.4042    2.7583    0.0000 Cl  0  0  0  0  0  0  0  0  0  0  0  0
    3.5417    0.4875    0.0000 O   0  0  0  0  0  0  0  0  0  0  0  0
    2.2417    1.2375    0.0000 C   0  0  0  0  0  0  0  0  0  0  0  0
    1.5917    1.6125    0.0000 C   0  0  0  0  0  0  0  0  0  0  0  0
    0.9417    1.2375    0.0000 C   0  0  0  0  0  0  0  0  0  0  0  0
    0.2917    1.6125    0.0000 Cl  0  0  0  0  0  0  0  0  0  0  0  0
    6.1375    1.2375    0.0000 C   0  0  0  0  0  0  0  0  0  0  0  0
    4.8417    0.4875    0.0000 C   0  0  0  0  0  0  0  0  0  0  0  0
    1.5917    0.1125    0.0000 C   0  0  0  0  0  0  0  0  0  0  0  0
    2.2417    0.4875    0.0000 C   0  0  0  0  0  0  0  0  0  0  0  0
    0.9417    0.4875    0.0000 C   0  0  0  0  0  0  0  0  0  0  0  0
    6.1375    0.4875    0.0000 C   0  0  0  0  0  0  0  0  0  0  0  0
    5.4875    0.1125    0.0000 C   0  0  0  0  0  0  0  0  0  0  0  0
  2  1  1  0  0  0  0
  3  1  1  0  0  0  0
  4  6  1  0  0  0  0
  5  2  1  0  0  0  0
  6  7  1  0  0  0  0
  7  5  2  0  0  0  0
  8  4  1  0  0  0  0
  9  1  1  0  0  0  0
 10  1  1  0  0  0  0
 11  4  2  0  0  0  0
 12  8  1  0  0  0  0
 13 12  1  0  0  0  0
 14 13  2  0  0  0  0
 15 14  1  0  0  0  0
 16  5  1  0  0  0  0
 17  7  1  0  0  0  0
 18 19  1  0  0  0  0
 19 12  2  0  0  0  0
 20 18  2  0  0  0  0
 21 16  2  0  0  0  0
 22 21  1  0  0  0  0
  3  2  1  0  0  0  0
 17 22  2  0  0  0  0
 20 14  1  0  0  0  0
M  END
>  <ID> (7936584)
7936584

>  <Supplier> (7936584)
ChemBridge

>  <clogP> (7936584)
4.424000000000000e+000

>  <RB> (7936584)
3

>  <tPSA> (7936584)
4.113000000000000e+001

>  <Hacc> (7936584)
1

>  <Hdon> (7936584)
2

>  <LogSw> (7936584)
-5.571000000000002e+000

>  <Group> (7936584)
3

>  <Core> (7936584)
514

$$$$
5427027
  -ISIS-  03310818222D

 31 35  0  0  0  0  0  0  0  0999 V2000
   -0.5958    2.2125    0.0000 C   0  0  0  0  0  0  0  0  0  0  0  0
   -5.9333    2.8833    0.0000 C   0  0  3  0  0  0  0  0  0  0  0  0
   -3.2625    2.9125    0.0000 N   0  0  3  0  0  0  0  0  0  0  0  0
    0.0792    1.8500    0.0000 C   0  0  0  0  0  0  0  0  0  0  0  0
   -0.5958    2.9958    0.0000 C   0  0  0  0  0  0  0  0  0  0  0  0
   -1.9125    2.1333    0.0000 N   0  0  3  0  0  0  0  0  0  0  0  0
   -5.2833    3.2958    0.0000 C   0  0  0  0  0  0  0  0  0  0  0  0
    0.0792    3.3833    0.0000 C   0  0  0  0  0  0  0  0  0  0  0  0
    0.7500    2.2125    0.0000 C   0  0  0  0  0  0  0  0  0  0  0  0
   -3.9458    3.2958    0.0000 C   0  0  0  0  0  0  0  0  0  0  0  0
   -1.2333    1.7458    0.0000 C   0  0  0  0  0  0  0  0  0  0  0  0
    0.7500    2.9958    0.0000 C   0  0  0  0  0  0  0  0  0  0  0  0
   -4.6208    2.9125    0.0000 C   0  0  0  0  0  0  0  0  0  0  0  0
   -3.2625    2.1333    0.0000 C   0  0  0  0  0  0  0  0  0  0  0  0
   -2.5833    3.2958    0.0000 C   0  0  0  0  0  0  0  0  0  0  0  0
   -6.3375    3.5333    0.0000 F   0  0  0  0  0  0  0  0  0  0  0  0
   -6.5667    2.4833    0.0000 F   0  0  0  0  0  0  0  0  0  0  0  0
   -5.5333    2.2333    0.0000 F   0  0  0  0  0  0  0  0  0  0  0  0
   -1.9125    2.9125    0.0000 C   0  0  0  0  0  0  0  0  0  0  0  0
   -2.5833    1.7458    0.0000 C   0  0  0  0  0  0  0  0  0  0  0  0
   -5.2833    4.0875    0.0000 C   0  0  0  0  0  0  0  0  0  0  0  0
    0.0500    1.0833    0.0000 C   0  0  0  0  0  0  0  0  0  0  0  0
   -1.2708    3.3833    0.0000 C   0  0  0  0  0  0  0  0  0  0  0  0
   -3.9458    4.0875    0.0000 C   0  0  0  0  0  0  0  0  0  0  0  0
   -4.6208    4.4667    0.0000 C   0  0  0  0  0  0  0  0  0  0  0  0
    0.0792    4.1542    0.0000 C   0  0  0  0  0  0  0  0  0  0  0  0
    1.4042    1.8208    0.0000 C   0  0  0  0  0  0  0  0  0  0  0  0
   -1.2708    4.1500    0.0000 C   0  0  0  0  0  0  0  0  0  0  0  0
    0.7000    0.6708    0.0000 C   0  0  0  0  0  0  0  0  0  0  0  0
    1.3875    1.0458    0.0000 C   0  0  0  0  0  0  0  0  0  0  0  0
   -0.5958    4.5292    0.0000 C   0  0  0  0  0  0  0  0  0  0  0  0
  2  7  1  0  0  0  0
  3 14  1  0  0  0  0
  4  1  1  0  0  0  0
  5  1  2  0  0  0  0
  6 11  1  0  0  0  0
  7 13  2  0  0  0  0
  8  5  1  0  0  0  0
  9  4  2  0  0  0  0
 10  3  1  0  0  0  0
 11  1  1  0  0  0  0
 12  8  2  0  0  0  0
 13 10  1  0  0  0  0
 14 20  1  0  0  0  0
 15 19  1  0  0  0  0
 16  2  1  0  0  0  0
 17  2  1  0  0  0  0
 18  2  1  0  0  0  0
 19  6  1  0  0  0  0
 20  6  1  0  0  0  0
 21 25  2  0  0  0  0
 22  4  1  0  0  0  0
 23  5  1  0  0  0  0
 24 10  2  0  0  0  0
 25 24  1  0  0  0  0
 26  8  1  0  0  0  0
 27  9  1  0  0  0  0
 28 23  2  0  0  0  0
 29 22  2  0  0  0  0
 30 29  1  0  0  0  0
 31 28  1  0  0  0  0
 12  9  1  0  0  0  0
 15  3  1  0  0  0  0
 26 31  2  0  0  0  0
 30 27  2  0  0  0  0
 21  7  1  0  0  0  0
M  END
>  <ID> (5427027)
5427027

>  <Supplier> (5427027)
ChemBridge

>  <clogP> (5427027)
6.840000000000000e+000

>  <RB> (5427027)
3

>  <tPSA> (5427027)
6.480000000000000e+000

>  <Hacc> (5427027)
1

>  <Hdon> (5427027)
0

>  <LogSw> (5427027)
-8.208000000000000e+000

>  <Group> (5427027)
1

>  <Core> (5427027)
162

$$$$
7936589
  -ISIS-  03310818272D

 25 27  0  0  0  0  0  0  0  0999 V2000
    7.7500    1.3458    0.0000 S   0  0  3  0  0  0  0  0  0  0  0  0
    8.2792    0.8125    0.0000 C   0  0  0  0  0  0  0  0  0  0  0  0
    7.1000    0.9708    0.0000 C   0  0  0  0  0  0  0  0  0  0  0  0
    9.0042    1.0083    0.0000 C   0  0  0  0  0  0  0  0  0  0  0  0
   11.5167    0.3375    0.0000 C   0  0  0  0  0  0  0  0  0  0  0  0
   10.7917    0.1458    0.0000 C   0  0  0  0  0  0  0  0  0  0  0  0
    6.4500    1.3458    0.0000 C   0  0  0  0  0  0  0  0  0  0  0  0
    8.3250    1.8250    0.0000 O   0  0  0  0  0  0  0  0  0  0  0  0
    7.3167    1.9583    0.0000 O   0  0  0  0  0  0  0  0  0  0  0  0
    9.5375    0.4833    0.0000 N   0  0  0  0  0  0  0  0  0  0  0  0
   10.2542    0.6708    0.0000 C   0  0  0  0  0  0  0  0  0  0  0  0
    5.8000    0.9708    0.0000 C   0  0  0  0  0  0  0  0  0  0  0  0
   11.7042    1.0583    0.0000 C   0  0  0  0  0  0  0  0  0  0  0  0
    9.2000    1.7333    0.0000 O   0  0  0  0  0  0  0  0  0  0  0  0
    7.1000    0.2208    0.0000 C   0  0  0  0  0  0  0  0  0  0  0  0
    5.8000    0.2208    0.0000 C   0  0  0  0  0  0  0  0  0  0  0  0
    6.4500   -0.1542    0.0000 C   0  0  0  0  0  0  0  0  0  0  0  0
   11.1792    1.5958    0.0000 C   0  0  0  0  0  0  0  0  0  0  0  0
   12.0417   -0.1917    0.0000 Cl  0  0  0  0  0  0  0  0  0  0  0  0
   10.4542    1.3958    0.0000 C   0  0  0  0  0  0  0  0  0  0  0  0
   12.4292    1.2583    0.0000 Cl  0  0  0  0  0  0  0  0  0  0  0  0
    5.1542    1.3458    0.0000 C   0  0  0  0  0  0  0  0  0  0  0  0
    5.1542   -0.1542    0.0000 C   0  0  0  0  0  0  0  0  0  0  0  0
    4.5042    0.9708    0.0000 C   0  0  0  0  0  0  0  0  0  0  0  0
    4.5042    0.2208    0.0000 C   0  0  0  0  0  0  0  0  0  0  0  0
  2  1  1  0  0  0  0
  3  1  1  0  0  0  0
  4  2  1  0  0  0  0
  5  6  2  0  0  0  0
  6 11  1  0  0  0  0
  7  3  2  0  0  0  0
  8  1  2  0  0  0  0
  9  1  2  0  0  0  0
 10  4  1  0  0  0  0
 11 10  1  0  0  0  0
 12  7  1  0  0  0  0
 13 18  2  0  0  0  0
 14  4  2  0  0  0  0
 15  3  1  0  0  0  0
 16 17  1  0  0  0  0
 17 15  2  0  0  0  0
 18 20  1  0  0  0  0
 19  5  1  0  0  0  0
 20 11  2  0  0  0  0
 21 13  1  0  0  0  0
 22 12  2  0  0  0  0
 23 16  2  0  0  0  0
 24 22  1  0  0  0  0
 25 23  1  0  0  0  0
 16 12  1  0  0  0  0
 25 24  2  0  0  0  0
  5 13  1  0  0  0  0
M  END
>  <ID> (7936589)
7936589

>  <Supplier> (7936589)
ChemBridge

>  <clogP> (7936589)
4.444000000000000e+000

>  <RB> (7936589)
4

>  <tPSA> (7936589)
6.323999999999997e+001

>  <Hacc> (7936589)
3

>  <Hdon> (7936589)
1

>  <LogSw> (7936589)
-5.869000000000000e+000

>  <Group> (7936589)
2

>  <Core> (7936589)
429

$$$$
7696636
  -ISIS-  03310818262D

 21 22  0  0  0  0  0  0  0  0999 V2000
   -2.3833    2.3833    0.0000 N   0  0  3  0  0  0  0  0  0  0  0  0
    1.8000    1.5833    0.0000 C   0  0  0  0  0  0  0  0  0  0  0  0
   -1.4625    2.3833    0.0000 C   0  0  0  0  0  0  0  0  0  0  0  0
    4.1167    0.7625    0.0000 C   0  0  0  0  0  0  0  0  0  0  0  0
    1.3375    2.3833    0.0000 N   0  0  0  0  0  0  0  0  0  0  0  0
    1.3375    0.7625    0.0000 O   0  0  0  0  0  0  0  0  0  0  0  0
    4.5792   -0.0292    0.0000 O   0  0  0  0  0  0  0  0  0  0  0  0
   -1.0000    1.5833    0.0000 C   0  0  0  0  0  0  0  0  0  0  0  0
   -1.0208    3.1708    0.0000 C   0  0  0  0  0  0  0  0  0  0  0  0
    0.4000    2.3833    0.0000 C   0  0  0  0  0  0  0  0  0  0  0  0
    2.7167    1.5833    0.0000 C   0  0  0  0  0  0  0  0  0  0  0  0
    3.1792    0.7625    0.0000 C   0  0  0  0  0  0  0  0  0  0  0  0
    4.5792    1.5833    0.0000 O   0  0  0  0  0  0  0  0  0  0  0  0
   -0.0625    1.5833    0.0000 C   0  0  0  0  0  0  0  0  0  0  0  0
   -0.0625    3.1833    0.0000 C   0  0  0  0  0  0  0  0  0  0  0  0
   -3.0458    3.0208    0.0000 C   0  0  0  0  0  0  0  0  0  0  0  0
   -2.4833    1.4833    0.0000 C   0  0  0  0  0  0  0  0  0  0  0  0
   -3.9458    2.9208    0.0000 C   0  0  0  0  0  0  0  0  0  0  0  0
   -3.2625    0.9625    0.0000 C   0  0  0  0  0  0  0  0  0  0  0  0
   -4.1458    1.2625    0.0000 C   0  0  0  0  0  0  0  0  0  0  0  0
   -4.4458    2.1458    0.0000 C   0  0  0  0  0  0  0  0  0  0  0  0
  2  5  1  0  0  0  0
  3  1  1  0  0  0  0
  4 12  1  0  0  0  0
  5 10  1  0  0  0  0
  6  2  2  0  0  0  0
  7  4  2  0  0  0  0
  8  3  2  0  0  0  0
  9  3  1  0  0  0  0
 10 15  1  0  0  0  0
 11  2  1  0  0  0  0
 12 11  1  0  0  0  0
 13  4  1  0  0  0  0
 14  8  1  0  0  0  0
 15  9  2  0  0  0  0
 16  1  1  0  0  0  0
 17  1  1  0  0  0  0
 18 16  1  0  0  0  0
 19 17  1  0  0  0  0
 20 19  1  0  0  0  0
 21 18  1  0  0  0  0
 21 20  1  0  0  0  0
 10 14  2  0  0  0  0
M  END
>  <ID> (7696636)
7696636

>  <Supplier> (7696636)
ChemBridge

>  <clogP> (7696636)
2.861000000000000e+000

>  <RB> (7696636)
5

>  <tPSA> (7696636)
6.964000000000000e+001

>  <Hacc> (7696636)
3

>  <Hdon> (7696636)
2

>  <LogSw> (7696636)
-3.773000000000000e+000

>  <Group> (7696636)
3

$$$$
5720989
  -ISIS-  03310818222D

 25 28  0  0  0  0  0  0  0  0999 V2000
   -2.2958   -7.5542    0.0000 C   0  0  0  0  0  0  0  0  0  0  0  0
   -4.7833   -4.0792    0.0000 N   0  0  0  0  0  0  0  0  0  0  0  0
   -4.7833  -10.9167    0.0000 N   0  0  0  0  0  0  0  0  0  0  0  0
    3.4500    3.6500    0.0000 C   0  0  0  0  0  0  0  0  0  0  0  0
    1.8500   -7.3292    0.0000 C   0  0  0  0  0  0  0  0  0  0  0  0
    7.6000    3.8833    0.0000 C   0  0  0  0  0  0  0  0  0  0  0  0
    1.4542   -0.0875    0.0000 N   0  0  0  0  0  0  0  0  0  0  0  0
    3.7792   -3.5792    0.0000 C   0  0  0  0  0  0  0  0  0  0  0  0
   -8.7542   -5.4667    0.0000 C   0  0  0  0  0  0  0  0  0  0  0  0
   -8.7542   -9.5875    0.0000 C   0  0  0  0  0  0  0  0  0  0  0  0
    9.3542    7.7000    0.0000 C   0  0  0  0  0  0  0  0  0  0  0  0
    1.2167    7.2292    0.0000 O   0  0  0  0  0  0  0  0  0  0  0  0
    6.9000   11.2167    0.0000 Cl  0  0  0  0  0  0  0  0  0  0  0  0
    4.1042  -10.7792    0.0000 C   0  0  0  0  0  0  0  0  0  0  0  0
    9.9500    0.5333    0.0000 C   0  0  0  0  0  0  0  0  0  0  0  0
    7.9292   -3.3500    0.0000 C   0  0  0  0  0  0  0  0  0  0  0  0
  -12.3375   -3.3500    0.0000 C   0  0  0  0  0  0  0  0  0  0  0  0
  -12.3375  -11.6792    0.0000 C   0  0  0  0  0  0  0  0  0  0  0  0
   13.5042    8.0542    0.0000 C   0  0  0  0  0  0  0  0  0  0  0  0
    8.2542  -10.6792    0.0000 C   0  0  0  0  0  0  0  0  0  0  0  0
   14.1000    0.7333    0.0000 C   0  0  0  0  0  0  0  0  0  0  0  0
   10.1875   -6.8292    0.0000 C   0  0  0  0  0  0  0  0  0  0  0  0
  -16.0000   -9.5875    0.0000 C   0  0  0  0  0  0  0  0  0  0  0  0
  -16.0000   -5.4667    0.0000 C   0  0  0  0  0  0  0  0  0  0  0  0
   15.9292    4.6042    0.0000 C   0  0  0  0  0  0  0  0  0  0  0  0
  2  1  2  0  0  0  0
  3  1  1  0  0  0  0
  4  7  1  0  0  0  0
  5  1  1  0  0  0  0
  6  4  1  0  0  0  0
  7  8  1  0  0  0  0
  8  5  2  0  0  0  0
  9  2  1  0  0  0  0
 10  3  1  0  0  0  0
 11  6  2  0  0  0  0
 12  4  2  0  0  0  0
 13 11  1  0  0  0  0
 14  5  1  0  0  0  0
 15  6  1  0  0  0  0
 16  8  1  0  0  0  0
 17  9  1  0  0  0  0
 18 10  1  0  0  0  0
 19 11  1  0  0  0  0
 20 14  2  0  0  0  0
 21 15  2  0  0  0  0
 22 20  1  0  0  0  0
 23 18  2  0  0  0  0
 24 17  2  0  0  0  0
 25 21  1  0  0  0  0
  9 10  2  0  0  0  0
 22 16  2  0  0  0  0
 24 23  1  0  0  0  0
 25 19  2  0  0  0  0
M  END
>  <ID> (5720989)
5720989

>  <Supplier> (5720989)
ChemBridge

>  <clogP> (5720989)
3.270000000000000e+000

>  <RB> (5720989)
3

>  <tPSA> (5720989)
5.778000000000000e+001

>  <Hacc> (5720989)
2

>  <Hdon> (5720989)
2

>  <LogSw> (5720989)
-4.529000000000000e+000

>  <Group> (5720989)
3

>  <Core> (5720989)
333

$$$$
7696634
  -ISIS-  03310818262D

 27 29  0  0  0  0  0  0  0  0999 V2000
    4.8542   -0.5167    0.0000 N   0  0  3  0  0  0  0  0  0  0  0  0
    4.0375   -0.6042    0.0000 C   0  0  0  0  0  0  0  0  0  0  0  0
    3.8625   -1.4042    0.0000 N   0  0  0  0  0  0  0  0  0  0  0  0
    4.5750   -1.8250    0.0000 N   0  0  0  0  0  0  0  0  0  0  0  0
    5.1917   -1.2792    0.0000 C   0  0  0  0  0  0  0  0  0  0  0  0
    0.7792    0.8875    0.0000 C   0  0  0  0  0  0  0  0  0  0  0  0
    1.3292    0.2833    0.0000 N   0  0  0  0  0  0  0  0  0  0  0  0
    3.4875    0.0125    0.0000 S   0  0  0  0  0  0  0  0  0  0  0  0
    2.1292    0.4500    0.0000 C   0  0  0  0  0  0  0  0  0  0  0  0
   -0.0125    0.7208    0.0000 C   0  0  0  0  0  0  0  0  0  0  0  0
    1.0375    1.6708    0.0000 C   0  0  0  0  0  0  0  0  0  0  0  0
    5.9917   -1.4542    0.0000 C   0  0  0  0  0  0  0  0  0  0  0  0
    2.3792    1.2333    0.0000 O   0  0  0  0  0  0  0  0  0  0  0  0
    2.6792   -0.1542    0.0000 C   0  0  0  0  0  0  0  0  0  0  0  0
   -0.5708    1.3250    0.0000 C   0  0  0  0  0  0  0  0  0  0  0  0
    5.2750    0.1958    0.0000 C   0  0  0  0  0  0  0  0  0  0  0  0
    0.4917    2.2833    0.0000 C   0  0  0  0  0  0  0  0  0  0  0  0
    6.2417   -2.2375    0.0000 C   0  0  0  0  0  0  0  0  0  0  0  0
   -0.3208    2.1083    0.0000 C   0  0  0  0  0  0  0  0  0  0  0  0
    7.0542   -2.4125    0.0000 C   0  0  0  0  0  0  0  0  0  0  0  0
   -0.2625   -0.0542    0.0000 C   0  0  0  0  0  0  0  0  0  0  0  0
    0.7417    3.0583    0.0000 C   0  0  0  0  0  0  0  0  0  0  0  0
    7.3000   -3.2000    0.0000 C   0  0  0  0  0  0  0  0  0  0  0  0
    7.6042   -1.8042    0.0000 C   0  0  0  0  0  0  0  0  0  0  0  0
    8.4042   -1.9792    0.0000 C   0  0  0  0  0  0  0  0  0  0  0  0
    8.1042   -3.3792    0.0000 C   0  0  0  0  0  0  0  0  0  0  0  0
    8.6625   -2.7667    0.0000 C   0  0  0  0  0  0  0  0  0  0  0  0
  2  1  1  0  0  0  0
  3  2  2  0  0  0  0
  4  5  2  0  0  0  0
  5  1  1  0  0  0  0
  6  7  1  0  0  0  0
  7  9  1  0  0  0  0
  8  2  1  0  0  0  0
  9 14  1  0  0  0  0
 10  6  1  0  0  0  0
 11  6  2  0  0  0  0
 12  5  1  0  0  0  0
 13  9  2  0  0  0  0
 14  8  1  0  0  0  0
 15 10  2  0  0  0  0
 16  1  1  0  0  0  0
 17 11  1  0  0  0  0
 18 12  1  0  0  0  0
 19 17  2  0  0  0  0
 20 18  1  0  0  0  0
 21 10  1  0  0  0  0
 22 17  1  0  0  0  0
 23 20  2  0  0  0  0
 24 20  1  0  0  0  0
 25 24  2  0  0  0  0
 26 23  1  0  0  0  0
 27 25  1  0  0  0  0
  4  3  1  0  0  0  0
 27 26  2  0  0  0  0
 15 19  1  0  0  0  0
M  END
>  <ID> (7696634)
7696634

>  <Supplier> (7696634)
ChemBridge

>  <clogP> (7696634)
2.701000000000000e+000

>  <RB> (7696634)
7

>  <tPSA> (7696634)
5.981000000000002e+001

>  <Hacc> (7696634)
4

>  <Hdon> (7696634)
1

>  <LogSw> (7696634)
-5.794000000000000e+000

>  <Group> (7696634)
2

>  <Core> (7696634)
009

$$$$
7118976
  -ISIS-  03310818252D

 22 23  0  0  0  0  0  0  0  0999 V2000
    2.8917   -4.2167    0.0000 C   0  0  0  0  0  0  0  0  0  0  0  0
    3.6042   -4.6292    0.0000 C   0  0  0  0  0  0  0  0  0  0  0  0
    4.3167   -4.2167    0.0000 C   0  0  0  0  0  0  0  0  0  0  0  0
    7.1792   -4.2250    0.0000 C   0  0  0  0  0  0  0  0  0  0  0  0
    5.0417   -4.6292    0.0000 C   0  0  0  0  0  0  0  0  0  0  0  0
    2.8917   -3.3875    0.0000 C   0  0  0  0  0  0  0  0  0  0  0  0
    2.1792   -4.6250    0.0000 C   0  0  0  0  0  0  0  0  0  0  0  0
    7.1792   -3.4000    0.0000 C   0  0  0  0  0  0  0  0  0  0  0  0
    6.4667   -4.6375    0.0000 C   0  0  0  0  0  0  0  0  0  0  0  0
    3.6042   -5.4542    0.0000 O   0  0  0  0  0  0  0  0  0  0  0  0
    5.7542   -4.2167    0.0000 C   0  0  0  0  0  0  0  0  0  0  0  0
    2.1792   -2.9750    0.0000 C   0  0  0  0  0  0  0  0  0  0  0  0
    6.4542   -2.9875    0.0000 C   0  0  0  0  0  0  0  0  0  0  0  0
    1.4667   -4.2125    0.0000 C   0  0  0  0  0  0  0  0  0  0  0  0
    5.7417   -3.4000    0.0000 C   0  0  0  0  0  0  0  0  0  0  0  0
    1.4667   -3.3875    0.0000 C   0  0  0  0  0  0  0  0  0  0  0  0
    7.8917   -4.6375    0.0000 O   0  0  0  0  0  0  0  0  0  0  0  0
    3.6042   -2.9667    0.0000 O   0  0  0  0  0  0  0  0  0  0  0  0
    0.7542   -4.6250    0.0000 Cl  0  0  0  0  0  0  0  0  0  0  0  0
    7.8917   -2.9875    0.0000 O   0  0  0  0  0  0  0  0  0  0  0  0
    8.6042   -4.2250    0.0000 C   0  0  0  0  0  0  0  0  0  0  0  0
    7.8917   -2.1625    0.0000 C   0  0  0  0  0  0  0  0  0  0  0  0
  2  1  1  0  0  0  0
  3  2  1  0  0  0  0
  4  9  1  0  0  0  0
  5  3  2  0  0  0  0
  6  1  1  0  0  0  0
  7  1  2  0  0  0  0
  8 13  1  0  0  0  0
  9 11  2  0  0  0  0
 10  2  2  0  0  0  0
 11  5  1  0  0  0  0
 12  6  2  0  0  0  0
 13 15  2  0  0  0  0
 14  7  1  0  0  0  0
 15 11  1  0  0  0  0
 16 14  2  0  0  0  0
 17  4  1  0  0  0  0
 18  6  1  0  0  0  0
 19 14  1  0  0  0  0
 20  8  1  0  0  0  0
 21 17  1  0  0  0  0
 22 20  1  0  0  0  0
 16 12  1  0  0  0  0
  8  4  2  0  0  0  0
M  END
>  <ID> (7118976)
7118976

>  <Supplier> (7118976)
ChemBridge

>  <clogP> (7118976)
4.690000000000000e+000

>  <RB> (7118976)
3

>  <tPSA> (7118976)
5.576000000000001e+001

>  <Hacc> (7118976)
4

>  <Hdon> (7118976)
1

>  <LogSw> (7118976)
-4.950000000000000e+000

>  <Group> (7118976)
1

>  <Core> (7118976)
237

$$$$
7118974
  -ISIS-  03310818252D

 22 24  0  0  0  0  0  0  0  0999 V2000
   -0.0708    0.1833    0.0000 N   0  0  3  0  0  0  0  0  0  0  0  0
   -0.8333   -0.2542    0.0000 C   0  0  0  0  0  0  0  0  0  0  0  0
    1.4500    1.0625    0.0000 N   0  0  3  0  0  0  0  0  0  0  0  0
   -1.5958    0.1625    0.0000 C   0  0  0  0  0  0  0  0  0  0  0  0
   -3.0958    0.1833    0.0000 C   0  0  0  0  0  0  0  0  0  0  0  0
   -2.3500   -0.2542    0.0000 C   0  0  0  0  0  0  0  0  0  0  0  0
   -3.9125   -0.0792    0.0000 S   0  0  0  0  0  0  0  0  0  0  0  0
    2.1875    1.4833    0.0000 C   0  0  0  0  0  0  0  0  0  0  0  0
    0.6875   -0.2542    0.0000 C   0  0  0  0  0  0  0  0  0  0  0  0
   -0.0708    1.0625    0.0000 C   0  0  0  0  0  0  0  0  0  0  0  0
    1.4500    0.1833    0.0000 C   0  0  0  0  0  0  0  0  0  0  0  0
    0.6875    1.4833    0.0000 C   0  0  0  0  0  0  0  0  0  0  0  0
   -4.4125    0.6208    0.0000 C   0  0  0  0  0  0  0  0  0  0  0  0
   -0.8333   -1.1375    0.0000 O   0  0  0  0  0  0  0  0  0  0  0  0
   -3.0958    1.0458    0.0000 C   0  0  0  0  0  0  0  0  0  0  0  0
   -3.9125    1.3000    0.0000 C   0  0  0  0  0  0  0  0  0  0  0  0
    2.1875    2.3458    0.0000 C   0  0  0  0  0  0  0  0  0  0  0  0
    2.9500    1.0625    0.0000 C   0  0  0  0  0  0  0  0  0  0  0  0
    3.6875    2.3625    0.0000 C   0  0  0  0  0  0  0  0  0  0  0  0
    3.7042    1.5000    0.0000 C   0  0  0  0  0  0  0  0  0  0  0  0
    2.9292    2.7833    0.0000 C   0  0  0  0  0  0  0  0  0  0  0  0
    4.4500    2.8000    0.0000 F   0  0  0  0  0  0  0  0  0  0  0  0
  2  1  1  0  0  0  0
  3 12  1  0  0  0  0
  4  2  1  0  0  0  0
  5  6  1  0  0  0  0
  6  4  2  0  0  0  0
  7  5  1  0  0  0  0
  8  3  1  0  0  0  0
  9  1  1  0  0  0  0
 10  1  1  0  0  0  0
 11  9  1  0  0  0  0
 12 10  1  0  0  0  0
 13  7  1  0  0  0  0
 14  2  2  0  0  0  0
 15  5  2  0  0  0  0
 16 15  1  0  0  0  0
 17  8  1  0  0  0  0
 18  8  2  0  0  0  0
 19 20  2  0  0  0  0
 20 18  1  0  0  0  0
 21 17  2  0  0  0  0
 22 19  1  0  0  0  0
  3 11  1  0  0  0  0
 19 21  1  0  0  0  0
 16 13  2  0  0  0  0
M  END
>  <ID> (7118974)
7118974

>  <Supplier> (7118974)
ChemBridge

>  <clogP> (7118974)
3.000000000000000e+000

>  <RB> (7118974)
3

>  <tPSA> (7118974)
2.355000000000000e+001

>  <Hacc> (7118974)
1

>  <Hdon> (7118974)
0

>  <LogSw> (7118974)
-4.069000000000000e+000

>  <Group> (7118974)
3

>  <Core> (7118974)
158

$$$$
6738750
  -ISIS-  03310818242D

 26 28  0  0  0  0  0  0  0  0999 V2000
    2.7292   -1.1167    0.0000 C   0  0  0  0  0  0  0  0  0  0  0  0
    3.5167   -1.3625    0.0000 N   0  0  0  0  0  0  0  0  0  0  0  0
    2.0167   -1.5292    0.0000 N   0  0  0  0  0  0  0  0  0  0  0  0
    3.9917   -0.6917    0.0000 C   0  0  0  0  0  0  0  0  0  0  0  0
    1.3042   -1.1167    0.0000 C   0  0  0  0  0  0  0  0  0  0  0  0
    2.7250   -0.2917    0.0000 S   0  0  0  0  0  0  0  0  0  0  0  0
    3.5042   -0.0292    0.0000 C   0  0  0  0  0  0  0  0  0  0  0  0
    4.8167   -0.6792    0.0000 C   0  0  0  0  0  0  0  0  0  0  0  0
    0.5917   -1.5375    0.0000 C   0  0  0  0  0  0  0  0  0  0  0  0
    1.3000   -0.2917    0.0000 O   0  0  0  0  0  0  0  0  0  0  0  0
   -0.1250   -1.1250    0.0000 C   0  0  0  0  0  0  0  0  0  0  0  0
    0.5917   -2.3667    0.0000 C   0  0  0  0  0  0  0  0  0  0  0  0
    5.2375   -1.3917    0.0000 C   0  0  0  0  0  0  0  0  0  0  0  0
    5.2167    0.0375    0.0000 C   0  0  0  0  0  0  0  0  0  0  0  0
    6.4667   -0.6625    0.0000 C   0  0  0  0  0  0  0  0  0  0  0  0
   -0.8375   -2.3667    0.0000 C   0  0  0  0  0  0  0  0  0  0  0  0
    6.0417    0.0500    0.0000 C   0  0  0  0  0  0  0  0  0  0  0  0
    6.0542   -1.3792    0.0000 C   0  0  0  0  0  0  0  0  0  0  0  0
   -0.1250   -2.7792    0.0000 C   0  0  0  0  0  0  0  0  0  0  0  0
   -0.8375   -1.5375    0.0000 C   0  0  0  0  0  0  0  0  0  0  0  0
    7.2917   -0.6500    0.0000 F   0  0  0  0  0  0  0  0  0  0  0  0
   -1.5583   -2.7792    0.0000 O   0  0  0  0  0  0  0  0  0  0  0  0
   -2.2708   -2.3667    0.0000 C   0  0  0  0  0  0  0  0  0  0  0  0
   -2.9833   -2.7792    0.0000 C   0  0  0  0  0  0  0  0  0  0  0  0
   -3.6958   -2.3667    0.0000 C   0  0  0  0  0  0  0  0  0  0  0  0
   -4.4125   -2.7750    0.0000 C   0  0  0  0  0  0  0  0  0  0  0  0
  2  1  2  0  0  0  0
  3  1  1  0  0  0  0
  4  2  1  0  0  0  0
  5  3  1  0  0  0  0
  6  1  1  0  0  0  0
  7  6  1  0  0  0  0
  8  4  1  0  0  0  0
  9  5  1  0  0  0  0
 10  5  2  0  0  0  0
 11  9  2  0  0  0  0
 12  9  1  0  0  0  0
 13  8  2  0  0  0  0
 14  8  1  0  0  0  0
 15 17  1  0  0  0  0
 16 19  1  0  0  0  0
 17 14  2  0  0  0  0
 18 13  1  0  0  0  0
 19 12  2  0  0  0  0
 20 11  1  0  0  0  0
 21 15  1  0  0  0  0
 22 16  1  0  0  0  0
 23 22  1  0  0  0  0
 24 23  1  0  0  0  0
 25 24  1  0  0  0  0
 26 25  1  0  0  0  0
  4  7  2  0  0  0  0
 20 16  2  0  0  0  0
 18 15  2  0  0  0  0
M  END
>  <ID> (6738750)
6738750

>  <Supplier> (6738750)
ChemBridge

>  <clogP> (6738750)
5.810000000000000e+000

>  <RB> (6738750)
5

>  <tPSA> (6738750)
5.121999999999999e+001

>  <Hacc> (6738750)
3

>  <Hdon> (6738750)
1

>  <LogSw> (6738750)
-6.863000000000000e+000

>  <Group> (6738750)
1

>  <Core> (6738750)
227

$$$$
7118972
  -ISIS-  03310818252D

 24 25  0  0  0  0  0  0  0  0999 V2000
   -2.9125   -0.6167    0.0000 C   0  0  0  0  0  0  0  0  0  0  0  0
   -4.4083   -0.6375    0.0000 N   0  0  0  0  0  0  0  0  0  0  0  0
   -3.6500   -1.9042    0.0000 N   0  0  0  0  0  0  0  0  0  0  0  0
   -3.6500   -0.2000    0.0000 C   0  0  0  0  0  0  0  0  0  0  0  0
   -2.9125   -1.4875    0.0000 C   0  0  0  0  0  0  0  0  0  0  0  0
   -4.4083   -1.4667    0.0000 C   0  0  0  0  0  0  0  0  0  0  0  0
    3.0500    1.0708    0.0000 C   0  0  0  0  0  0  0  0  0  0  0  0
    2.2875    0.6625    0.0000 N   0  0  3  0  0  0  0  0  0  0  0  0
    0.8000   -0.2000    0.0000 N   0  0  3  0  0  0  0  0  0  0  0  0
   -2.1708   -0.2000    0.0000 C   0  0  0  0  0  0  0  0  0  0  0  0
    3.0500    1.9333    0.0000 S   0  0  0  0  0  0  0  0  0  0  0  0
   -3.6500    0.6625    0.0000 O   0  0  0  0  0  0  0  0  0  0  0  0
   -2.1708   -1.9292    0.0000 O   0  0  0  0  0  0  0  0  0  0  0  0
   -5.1625   -1.8875    0.0000 O   0  0  0  0  0  0  0  0  0  0  0  0
    2.2875   -0.1792    0.0000 C   0  0  0  0  0  0  0  0  0  0  0  0
    1.5500    1.0958    0.0000 C   0  0  0  0  0  0  0  0  0  0  0  0
    3.7667    0.6208    0.0000 N   0  0  0  0  0  0  0  0  0  0  0  0
    0.8000    0.6625    0.0000 C   0  0  0  0  0  0  0  0  0  0  0  0
    1.5500   -0.6167    0.0000 C   0  0  0  0  0  0  0  0  0  0  0  0
   -1.4333   -0.6167    0.0000 N   0  0  0  0  0  0  0  0  0  0  0  0
    0.0542   -0.6167    0.0000 C   0  0  0  0  0  0  0  0  0  0  0  0
   -0.6833   -0.2000    0.0000 C   0  0  0  0  0  0  0  0  0  0  0  0
    4.5167    1.0500    0.0000 C   0  0  0  0  0  0  0  0  0  0  0  0
    5.2375    0.6000    0.0000 C   0  0  0  0  0  0  0  0  0  0  0  0
  2  4  1  0  0  0  0
  3  5  1  0  0  0  0
  4  1  1  0  0  0  0
  5  1  1  0  0  0  0
  6  3  1  0  0  0  0
  7  8  1  0  0  0  0
  8 15  1  0  0  0  0
  9 21  1  0  0  0  0
 10  1  2  0  0  0  0
 11  7  2  0  0  0  0
 12  4  2  0  0  0  0
 13  5  2  0  0  0  0
 14  6  2  0  0  0  0
 15 19  1  0  0  0  0
 16 18  1  0  0  0  0
 17  7  1  0  0  0  0
 18  9  1  0  0  0  0
 19  9  1  0  0  0  0
 20 10  1  0  0  0  0
 21 22  1  0  0  0  0
 22 20  1  0  0  0  0
 23 17  1  0  0  0  0
 24 23  1  0  0  0  0
  2  6  1  0  0  0  0
 16  8  1  0  0  0  0
M  END
>  <ID> (7118972)
7118972

>  <Supplier> (7118972)
ChemBridge

>  <clogP> (7118972)
3.200000000000000e-001

>  <RB> (7118972)
4

>  <tPSA> (7118972)
1.058100000000000e+002

>  <Hacc> (7118972)
4

>  <Hdon> (7118972)
4

>  <LogSw> (7118972)
-2.058000000000000e+000

>  <Group> (7118972)
2

>  <Core> (7118972)
192

$$$$
7462614
  -ISIS-  03310818262D

 28 29  0  0  0  0  0  0  0  0999 V2000
    3.6292   -2.3375    0.0000 S   0  0  3  0  0  0  0  0  0  0  0  0
    3.4667   -1.4042    0.0000 C   0  0  0  0  0  0  0  0  0  0  0  0
    1.3667    1.0208    0.0000 C   0  0  0  0  0  0  0  0  0  0  0  0
    1.5500    0.1208    0.0000 N   0  0  0  0  0  0  0  0  0  0  0  0
    2.4292   -0.2042    0.0000 C   0  0  0  0  0  0  0  0  0  0  0  0
    0.4875    1.3208    0.0000 C   0  0  0  0  0  0  0  0  0  0  0  0
    2.6042   -1.1042    0.0000 C   0  0  0  0  0  0  0  0  0  0  0  0
    0.3042    2.2208    0.0000 C   0  0  0  0  0  0  0  0  0  0  0  0
    4.5292   -2.1875    0.0000 N   0  0  3  0  0  0  0  0  0  0  0  0
    2.7042   -2.4875    0.0000 O   0  0  0  0  0  0  0  0  0  0  0  0
    3.7667   -3.2375    0.0000 O   0  0  0  0  0  0  0  0  0  0  0  0
    3.1500    0.3958    0.0000 C   0  0  0  0  0  0  0  0  0  0  0  0
    2.0500    1.6208    0.0000 O   0  0  0  0  0  0  0  0  0  0  0  0
    4.1667   -0.8042    0.0000 C   0  0  0  0  0  0  0  0  0  0  0  0
    4.0042    0.0625    0.0000 C   0  0  0  0  0  0  0  0  0  0  0  0
   -0.5500    2.5208    0.0000 C   0  0  0  0  0  0  0  0  0  0  0  0
    3.0042    1.3208    0.0000 O   0  0  0  0  0  0  0  0  0  0  0  0
   -0.1958    0.7208    0.0000 C   0  0  0  0  0  0  0  0  0  0  0  0
    4.8667   -1.3167    0.0000 C   0  0  0  0  0  0  0  0  0  0  0  0
    5.1042   -2.8792    0.0000 C   0  0  0  0  0  0  0  0  0  0  0  0
   -1.2333    1.9208    0.0000 C   0  0  0  0  0  0  0  0  0  0  0  0
   -0.7333    3.4208    0.0000 C   0  0  0  0  0  0  0  0  0  0  0  0
    3.5875    1.8958    0.0000 C   0  0  0  0  0  0  0  0  0  0  0  0
    4.7875   -3.7500    0.0000 C   0  0  0  0  0  0  0  0  0  0  0  0
    5.7667   -1.1667    0.0000 C   0  0  0  0  0  0  0  0  0  0  0  0
   -2.0958    2.1958    0.0000 C   0  0  0  0  0  0  0  0  0  0  0  0
   -1.5958    3.7208    0.0000 C   0  0  0  0  0  0  0  0  0  0  0  0
   -2.2708    3.1208    0.0000 C   0  0  0  0  0  0  0  0  0  0  0  0
  2  1  1  0  0  0  0
  3  4  1  0  0  0  0
  4  5  1  0  0  0  0
  5  7  2  0  0  0  0
  6  3  1  0  0  0  0
  7  2  1  0  0  0  0
  8  6  2  0  0  0  0
  9  1  1  0  0  0  0
 10  1  2  0  0  0  0
 11  1  2  0  0  0  0
 12 15  2  0  0  0  0
 13  3  2  0  0  0  0
 14  2  2  0  0  0  0
 15 14  1  0  0  0  0
 16  8  1  0  0  0  0
 17 12  1  0  0  0  0
 18  6  1  0  0  0  0
 19  9  1  0  0  0  0
 20  9  1  0  0  0  0
 21 16  2  0  0  0  0
 22 16  1  0  0  0  0
 23 17  1  0  0  0  0
 24 20  1  0  0  0  0
 25 19  1  0  0  0  0
 26 21  1  0  0  0  0
 27 22  2  0  0  0  0
 28 27  1  0  0  0  0
 12  5  1  0  0  0  0
 28 26  2  0  0  0  0
M  END
>  <ID> (7462614)
7462614

>  <Supplier> (7462614)
ChemBridge

>  <clogP> (7462614)
4.145000000000000e+000

>  <RB> (7462614)
4

>  <tPSA> (7462614)
7.570999999999999e+001

>  <Hacc> (7462614)
5

>  <Hdon> (7462614)
1

>  <LogSw> (7462614)
-5.452000000000000e+000

>  <Group> (7462614)
2

>  <Core> (7462614)
236

$$$$
6738759
  -ISIS-  03310818242D

 28 31  0  0  0  0  0  0  0  0999 V2000
    4.7542   -2.0667    0.0000 N   0  0  3  0  0  0  0  0  0  0  0  0
    4.9750   -2.8667    0.0000 C   0  0  0  0  0  0  0  0  0  0  0  0
    4.2792   -3.3250    0.0000 N   0  0  0  0  0  0  0  0  0  0  0  0
    3.9250   -2.0292    0.0000 N   0  0  0  0  0  0  0  0  0  0  0  0
    5.4500   -1.6167    0.0000 C   0  0  0  0  0  0  0  0  0  0  0  0
    3.6375   -2.8042    0.0000 C   0  0  0  0  0  0  0  0  0  0  0  0
    6.1000   -2.1292    0.0000 C   0  0  0  0  0  0  0  0  0  0  0  0
    5.8042   -2.9042    0.0000 S   0  0  0  0  0  0  0  0  0  0  0  0
    6.9000   -1.9167    0.0000 C   0  0  0  0  0  0  0  0  0  0  0  0
    2.8375   -3.0250    0.0000 C   0  0  0  0  0  0  0  0  0  0  0  0
    8.8667   -2.8625    0.0000 C   0  0  0  0  0  0  0  0  0  0  0  0
    5.4917   -0.7875    0.0000 O   0  0  0  0  0  0  0  0  0  0  0  0
    7.4875   -2.5042    0.0000 C   0  0  0  0  0  0  0  0  0  0  0  0
    8.6542   -3.6667    0.0000 C   0  0  0  0  0  0  0  0  0  0  0  0
    8.2792   -2.2875    0.0000 C   0  0  0  0  0  0  0  0  0  0  0  0
    2.6292   -3.8250    0.0000 C   0  0  0  0  0  0  0  0  0  0  0  0
    2.2500   -2.4417    0.0000 C   0  0  0  0  0  0  0  0  0  0  0  0
    7.8542   -3.8917    0.0000 C   0  0  0  0  0  0  0  0  0  0  0  0
    0.4417   -3.6792    0.0000 O   0  0  0  0  0  0  0  0  0  0  0  0
    1.2417   -3.4625    0.0000 C   0  0  0  0  0  0  0  0  0  0  0  0
    9.6667   -2.6417    0.0000 Cl  0  0  0  0  0  0  0  0  0  0  0  0
    7.2667   -3.3042    0.0000 C   0  0  0  0  0  0  0  0  0  0  0  0
    9.2500   -4.2542    0.0000 Cl  0  0  0  0  0  0  0  0  0  0  0  0
    1.8375   -4.0417    0.0000 C   0  0  0  0  0  0  0  0  0  0  0  0
    1.4500   -2.6542    0.0000 C   0  0  0  0  0  0  0  0  0  0  0  0
   -0.1500   -3.1000    0.0000 C   0  0  3  0  0  0  0  0  0  0  0  0
   -0.9500   -3.3167    0.0000 C   0  0  0  0  0  0  0  0  0  0  0  0
    0.0625   -2.3000    0.0000 C   0  0  0  0  0  0  0  0  0  0  0  0
  2  1  1  0  0  0  0
  3  2  2  0  0  0  0
  4  1  1  0  0  0  0
  5  1  1  0  0  0  0
  6  4  2  0  0  0  0
  7  5  1  0  0  0  0
  8  2  1  0  0  0  0
  9  7  2  0  0  0  0
 10  6  1  0  0  0  0
 11 15  2  0  0  0  0
 12  5  2  0  0  0  0
 13  9  1  0  0  0  0
 14 18  2  0  0  0  0
 15 13  1  0  0  0  0
 16 10  1  0  0  0  0
 17 10  2  0  0  0  0
 18 22  1  0  0  0  0
 19 20  1  0  0  0  0
 20 25  2  0  0  0  0
 21 11  1  0  0  0  0
 22 13  2  0  0  0  0
 23 14  1  0  0  0  0
 24 16  2  0  0  0  0
 25 17  1  0  0  0  0
 26 19  1  0  0  0  0
 27 26  1  0  0  0  0
 28 26  1  0  0  0  0
  6  3  1  0  0  0  0
  8  7  1  0  0  0  0
 20 24  1  0  0  0  0
 11 14  1  0  0  0  0
M  END
>  <ID> (6738759)
6738759

>  <Supplier> (6738759)
ChemBridge

>  <clogP> (6738759)
4.340000000000000e+000

>  <RB> (6738759)
3

>  <tPSA> (6738759)
5.649000000000000e+001

>  <Hacc> (6738759)
5

>  <Hdon> (6738759)
0

>  <LogSw> (6738759)
-6.058000000000000e+000

>  <Group> (6738759)
2

>  <Core> (6738759)
264

$$$$
7662971
  -ISIS-  03310818262D

 29 33  0  0  0  0  0  0  0  0999 V2000
   -0.4333   -1.0667    0.0000 C   0  0  0  0  0  0  0  0  0  0  0  0
   -0.4333   -0.3500    0.0000 C   0  0  0  0  0  0  0  0  0  0  0  0
   -1.1125   -1.2875    0.0000 N   0  0  3  0  0  0  0  0  0  0  0  0
   -1.5333   -0.7042    0.0000 N   0  0  0  0  0  0  0  0  0  0  0  0
    0.8292   -0.3500    0.0000 C   0  0  0  0  0  0  0  0  0  0  0  0
    0.1875   -1.4292    0.0000 O   0  0  0  0  0  0  0  0  0  0  0  0
    0.1875    0.0125    0.0000 C   0  0  3  0  0  0  0  0  0  0  0  0
    0.8292   -1.0667    0.0000 C   0  0  0  0  0  0  0  0  0  0  0  0
   -1.1125   -0.1292    0.0000 C   0  0  0  0  0  0  0  0  0  0  0  0
    0.1875    0.7333    0.0000 C   0  0  0  0  0  0  0  0  0  0  0  0
   -1.3208   -1.9542    0.0000 C   0  0  0  0  0  0  0  0  0  0  0  0
    1.4667    0.0125    0.0000 C   0  0  0  0  0  0  0  0  0  0  0  0
    2.1042    0.3708    0.0000 N   0  0  0  0  0  0  0  0  0  0  0  0
    0.8042    1.0958    0.0000 C   0  0  0  0  0  0  0  0  0  0  0  0
    0.7875    1.8125    0.0000 C   0  0  0  0  0  0  0  0  0  0  0  0
   -0.8458   -2.4500    0.0000 C   0  0  0  0  0  0  0  0  0  0  0  0
    0.1667    2.1708    0.0000 C   0  0  0  0  0  0  0  0  0  0  0  0
    1.3292    2.2958    0.0000 O   0  0  0  0  0  0  0  0  0  0  0  0
    0.3292    2.8708    0.0000 O   0  0  0  0  0  0  0  0  0  0  0  0
   -0.4500    1.0958    0.0000 C   0  0  0  0  0  0  0  0  0  0  0  0
    1.0500    2.9583    0.0000 C   0  0  0  0  0  0  0  0  0  0  0  0
    1.4667   -1.4292    0.0000 N   0  0  0  0  0  0  0  0  0  0  0  0
   -0.4500    1.8125    0.0000 C   0  0  0  0  0  0  0  0  0  0  0  0
   -1.0333   -3.1375    0.0000 C   0  0  0  0  0  0  0  0  0  0  0  0
   -1.3208    0.5458    0.0000 C   0  0  0  0  0  0  0  0  0  0  0  0
   -0.5500   -3.6542    0.0000 Cl  0  0  0  0  0  0  0  0  0  0  0  0
   -2.0208   -2.1375    0.0000 C   0  0  0  0  0  0  0  0  0  0  0  0
   -2.2000   -2.8000    0.0000 C   0  0  0  0  0  0  0  0  0  0  0  0
   -1.7000   -3.3042    0.0000 C   0  0  0  0  0  0  0  0  0  0  0  0
  2  1  2  0  0  0  0
  3  1  1  0  0  0  0
  4  3  1  0  0  0  0
  5  8  2  0  0  0  0
  6  1  1  0  0  0  0
  7  2  1  0  0  0  0
  8  6  1  0  0  0  0
  9  2  1  0  0  0  0
 10  7  1  0  0  0  0
 11  3  1  0  0  0  0
 12  5  1  0  0  0  0
 13 12  3  0  0  0  0
 14 10  2  0  0  0  0
 15 14  1  0  0  0  0
 16 11  1  0  0  0  0
 17 23  1  0  0  0  0
 18 15  1  0  0  0  0
 19 17  1  0  0  0  0
 20 10  1  0  0  0  0
 21 18  1  0  0  0  0
 22  8  1  0  0  0  0
 23 20  2  0  0  0  0
 24 16  2  0  0  0  0
 25  9  1  0  0  0  0
 26 24  1  0  0  0  0
 27 11  2  0  0  0  0
 28 27  1  0  0  0  0
 29 28  2  0  0  0  0
  4  9  2  0  0  0  0
  5  7  1  0  0  0  0
 24 29  1  0  0  0  0
 15 17  2  0  0  0  0
 19 21  1  0  0  0  0
M  END
>  <ID> (7662971)
7662971

>  <Supplier> (7662971)
ChemBridge

>  <clogP> (7662971)
5.040000000000000e+000

>  <RB> (7662971)
2

>  <tPSA> (7662971)
9.531999999999999e+001

>  <Hacc> (7662971)
6

>  <Hdon> (7662971)
1

>  <LogSw> (7662971)
-4.515000000000000e+000

>  <Group> (7662971)
1

>  <Core> (7662971)
092

$$$$
9078065
  -ISIS-  03310818292D

 19 20  0  0  0  0  0  0  0  0999 V2000
    4.8292    1.6583    0.0000 C   0  0  0  0  0  0  0  0  0  0  0  0
    4.0792    1.6583    0.0000 C   0  0  0  0  0  0  0  0  0  0  0  0
    5.2750    1.0500    0.0000 C   0  0  0  0  0  0  0  0  0  0  0  0
    5.2750    2.2708    0.0000 C   0  0  0  0  0  0  0  0  0  0  0  0
    5.9875    1.2833    0.0000 O   0  0  0  0  0  0  0  0  0  0  0  0
    5.9875    2.0333    0.0000 C   0  0  0  0  0  0  0  0  0  0  0  0
    0.3292    1.6583    0.0000 C   0  0  0  0  0  0  0  0  0  0  0  0
    3.7042    2.3083    0.0000 N   0  0  0  0  0  0  0  0  0  0  0  0
   -0.0458    1.0083    0.0000 N   0  0  0  0  0  0  0  0  0  0  0  0
    3.7042    1.0083    0.0000 O   0  0  0  0  0  0  0  0  0  0  0  0
    0.7042    2.3083    0.0000 S   0  0  0  0  0  0  0  0  0  0  0  0
    2.9542    2.3083    0.0000 C   0  0  0  0  0  0  0  0  0  0  0  0
    1.4542    2.3083    0.0000 C   0  0  0  0  0  0  0  0  0  0  0  0
    5.0417    0.3375    0.0000 C   0  0  0  0  0  0  0  0  0  0  0  0
    2.5792    1.6583    0.0000 C   0  0  0  0  0  0  0  0  0  0  0  0
    2.5792    2.9583    0.0000 C   0  0  0  0  0  0  0  0  0  0  0  0
    1.8292    2.9583    0.0000 C   0  0  0  0  0  0  0  0  0  0  0  0
    1.8292    1.6583    0.0000 C   0  0  0  0  0  0  0  0  0  0  0  0
    6.5917    2.4708    0.0000 C   0  0  0  0  0  0  0  0  0  0  0  0
  2  1  1  0  0  0  0
  3  1  2  0  0  0  0
  4  1  1  0  0  0  0
  5  3  1  0  0  0  0
  6  4  2  0  0  0  0
  7 11  1  0  0  0  0
  8  2  1  0  0  0  0
  9  7  3  0  0  0  0
 10  2  2  0  0  0  0
 11 13  1  0  0  0  0
 12  8  1  0  0  0  0
 13 17  2  0  0  0  0
 14  3  1  0  0  0  0
 15 12  1  0  0  0  0
 16 12  2  0  0  0  0
 17 16  1  0  0  0  0
 18 15  2  0  0  0  0
 19  6  1  0  0  0  0
  6  5  1  0  0  0  0
 13 18  1  0  0  0  0
M  END
>  <ID> (9078065)
9078065

>  <Supplier> (9078065)
ChemBridge

>  <clogP> (9078065)
2.897000000000000e+000

>  <RB> (9078065)
3

>  <tPSA> (9078065)
6.603000000000000e+001

>  <Hacc> (9078065)
3

>  <Hdon> (9078065)
1

>  <LogSw> (9078065)
-3.661000000000000e+000

>  <Group> (9078065)
2

>  <Core> (9078065)
511

$$$$
9116037
  -ISIS-  03310818292D

 20 21  0  0  0  0  0  0  0  0999 V2000
    4.3667    2.5333    0.0000 N   0  0  0  0  0  0  0  0  0  0  0  0
    5.0167    2.9083    0.0000 C   0  0  0  0  0  0  0  0  0  0  0  0
    3.7167    2.9083    0.0000 C   0  0  0  0  0  0  0  0  0  0  0  0
    4.3667    4.0292    0.0000 N   0  0  0  0  0  0  0  0  0  0  0  0
    7.6125    2.9083    0.0000 C   0  0  0  0  0  0  0  0  0  0  0  0
    5.0167    3.6583    0.0000 N   0  0  0  0  0  0  0  0  0  0  0  0
    8.2625    2.5333    0.0000 C   0  0  3  0  0  0  0  0  0  0  0  0
    3.7167    3.6583    0.0000 C   0  0  0  0  0  0  0  0  0  0  0  0
    5.6667    2.5333    0.0000 N   0  0  0  0  0  0  0  0  0  0  0  0
    7.6125    3.6583    0.0000 C   0  0  0  0  0  0  0  0  0  0  0  0
    6.9625    2.5333    0.0000 C   0  0  0  0  0  0  0  0  0  0  0  0
    3.0667    2.5333    0.0000 O   0  0  0  0  0  0  0  0  0  0  0  0
    6.3125    2.9083    0.0000 C   0  0  0  0  0  0  0  0  0  0  0  0
    8.0667    1.8083    0.0000 F   0  0  0  0  0  0  0  0  0  0  0  0
    8.9667    2.2833    0.0000 F   0  0  0  0  0  0  0  0  0  0  0  0
    8.5792    3.2125    0.0000 F   0  0  0  0  0  0  0  0  0  0  0  0
    6.9625    4.0292    0.0000 C   0  0  0  0  0  0  0  0  0  0  0  0
    6.3125    3.6583    0.0000 C   0  0  0  0  0  0  0  0  0  0  0  0
    8.2625    4.0292    0.0000 Cl  0  0  0  0  0  0  0  0  0  0  0  0
    3.0667    4.0292    0.0000 C   0  0  0  0  0  0  0  0  0  0  0  0
  2  1  1  0  0  0  0
  3  1  1  0  0  0  0
  4  8  2  0  0  0  0
  5 11  2  0  0  0  0
  6  2  2  0  0  0  0
  7  5  1  0  0  0  0
  8  3  1  0  0  0  0
  9  2  1  0  0  0  0
 10 17  2  0  0  0  0
 11 13  1  0  0  0  0
 12  3  2  0  0  0  0
 13  9  1  0  0  0  0
 14  7  1  0  0  0  0
 15  7  1  0  0  0  0
 16  7  1  0  0  0  0
 17 18  1  0  0  0  0
 18 13  2  0  0  0  0
 19 10  1  0  0  0  0
 20  8  1  0  0  0  0
  6  4  1  0  0  0  0
  5 10  1  0  0  0  0
M  END
>  <ID> (9116037)
9116037

>  <Supplier> (9116037)
ChemBridge

>  <clogP> (9116037)
2.747000000000000e+000

>  <RB> (9116037)
2

>  <tPSA> (9116037)
7.066999999999999e+001

>  <Hacc> (9116037)
3

>  <Hdon> (9116037)
2

>  <LogSw> (9116037)
-4.918000000000000e+000

>  <Group> (9116037)
2

$$$$
9116036
  -ISIS-  03310818292D

 27 30  0  0  0  0  0  0  0  0999 V2000
    3.7500    2.3958    0.0000 C   0  0  0  0  0  0  0  0  0  0  0  0
    4.1250    1.7458    0.0000 C   0  0  0  0  0  0  0  0  0  0  0  0
    4.9375    2.6458    0.0000 C   0  0  0  0  0  0  0  0  0  0  0  0
    4.2500    2.9583    0.0000 N   0  0  3  0  0  0  0  0  0  0  0  0
    4.8542    1.9000    0.0000 N   0  0  0  0  0  0  0  0  0  0  0  0
    3.7500    1.0958    0.0000 N   0  0  3  0  0  0  0  0  0  0  0  0
    2.6250    1.7458    0.0000 N   0  0  3  0  0  0  0  0  0  0  0  0
    3.0000    1.0958    0.0000 C   0  0  0  0  0  0  0  0  0  0  0  0
    3.0000    2.3958    0.0000 C   0  0  0  0  0  0  0  0  0  0  0  0
    5.4375    3.2083    0.0000 N   0  0  3  0  0  0  0  0  0  0  0  0
    4.3292    3.7083    0.0000 C   0  0  0  0  0  0  0  0  0  0  0  0
    5.0625    3.8583    0.0000 C   0  0  0  0  0  0  0  0  0  0  0  0
    6.1792    3.1250    0.0000 C   0  0  0  0  0  0  0  0  0  0  0  0
    2.6250    0.4458    0.0000 O   0  0  0  0  0  0  0  0  0  0  0  0
    2.6250    3.0458    0.0000 O   0  0  0  0  0  0  0  0  0  0  0  0
    1.8750    1.7458    0.0000 C   0  0  0  0  0  0  0  0  0  0  0  0
    4.1250    0.4458    0.0000 C   0  0  0  0  0  0  0  0  0  0  0  0
    1.5000    2.3958    0.0000 C   0  0  0  0  0  0  0  0  0  0  0  0
    6.4875    2.4458    0.0000 C   0  0  0  0  0  0  0  0  0  0  0  0
    6.6250    3.7333    0.0000 C   0  0  0  0  0  0  0  0  0  0  0  0
    0.7500    2.3958    0.0000 C   0  0  0  0  0  0  0  0  0  0  0  0
    7.6750    2.9708    0.0000 C   0  0  0  0  0  0  0  0  0  0  0  0
    5.3667    4.5292    0.0000 C   0  0  0  0  0  0  0  0  0  0  0  0
    7.2292    2.3625    0.0000 C   0  0  0  0  0  0  0  0  0  0  0  0
    7.3667    3.6583    0.0000 C   0  0  0  0  0  0  0  0  0  0  0  0
    8.4167    2.8958    0.0000 F   0  0  0  0  0  0  0  0  0  0  0  0
    0.3750    3.0458    0.0000 C   0  0  0  0  0  0  0  0  0  0  0  0
  2  1  2  0  0  0  0
  3  4  1  0  0  0  0
  4  1  1  0  0  0  0
  5  2  1  0  0  0  0
  6  2  1  0  0  0  0
  7  9  1  0  0  0  0
  8  7  1  0  0  0  0
  9  1  1  0  0  0  0
 10  3  1  0  0  0  0
 11  4  1  0  0  0  0
 12 11  2  0  0  0  0
 13 10  1  0  0  0  0
 14  8  2  0  0  0  0
 15  9  2  0  0  0  0
 16  7  1  0  0  0  0
 17  6  1  0  0  0  0
 18 16  1  0  0  0  0
 19 13  1  0  0  0  0
 20 13  2  0  0  0  0
 21 18  2  0  0  0  0
 22 25  2  0  0  0  0
 23 12  1  0  0  0  0
 24 19  2  0  0  0  0
 25 20  1  0  0  0  0
 26 22  1  0  0  0  0
 27 21  1  0  0  0  0
  3  5  2  0  0  0  0
  6  8  1  0  0  0  0
 10 12  1  0  0  0  0
 24 22  1  0  0  0  0
M  END
>  <ID> (9116036)
9116036

>  <Supplier> (9116036)
ChemBridge

>  <clogP> (9116036)
3.758000000000000e+000

>  <RB> (9116036)
3

>  <tPSA> (9116036)
6.622999999999996e+001

>  <Hacc> (9116036)
3

>  <Hdon> (9116036)
0

>  <LogSw> (9116036)
-5.259000000000000e+000

>  <Group> (9116036)
2

>  <Core> (9116036)
131

$$$$
9116035
  -ISIS-  03310818292D

 23 24  0  0  0  0  0  0  0  0999 V2000
    6.4750    1.3458    0.0000 S   0  0  3  0  0  0  0  0  0  0  0  0
    5.7250    1.3458    0.0000 N   0  0  3  0  0  0  0  0  0  0  0  0
    3.4750    1.3458    0.0000 C   0  0  0  0  0  0  0  0  0  0  0  0
    3.1000    1.9958    0.0000 N   0  0  0  0  0  0  0  0  0  0  0  0
    6.6667    2.0708    0.0000 N   0  0  3  0  0  0  0  0  0  0  0  0
    2.3500    1.9958    0.0000 C   0  0  0  0  0  0  0  0  0  0  0  0
    6.4042    0.5958    0.0000 O   0  0  0  0  0  0  0  0  0  0  0  0
    7.2125    1.2125    0.0000 O   0  0  0  0  0  0  0  0  0  0  0  0
    1.9750    2.6458    0.0000 C   0  0  0  0  0  0  0  0  0  0  0  0
    4.2250    1.3458    0.0000 C   0  0  3  0  0  0  0  0  0  0  0  0
    5.3500    0.6958    0.0000 C   0  0  0  0  0  0  0  0  0  0  0  0
    5.3500    1.9958    0.0000 C   0  0  0  0  0  0  0  0  0  0  0  0
    3.1000    0.6958    0.0000 O   0  0  0  0  0  0  0  0  0  0  0  0
    1.2250    2.6458    0.0000 C   0  0  0  0  0  0  0  0  0  0  0  0
    1.9750    1.3458    0.0000 C   0  0  0  0  0  0  0  0  0  0  0  0
    4.6000    0.6958    0.0000 C   0  0  0  0  0  0  0  0  0  0  0  0
    4.6000    1.9958    0.0000 C   0  0  0  0  0  0  0  0  0  0  0  0
    0.8500    1.9958    0.0000 C   0  0  0  0  0  0  0  0  0  0  0  0
    1.2250    1.3458    0.0000 C   0  0  0  0  0  0  0  0  0  0  0  0
    0.1000    1.9958    0.0000 Cl  0  0  0  0  0  0  0  0  0  0  0  0
    7.3917    2.2708    0.0000 C   0  0  0  0  0  0  0  0  0  0  0  0
    6.1375    2.6000    0.0000 C   0  0  0  0  0  0  0  0  0  0  0  0
    2.3500    3.2958    0.0000 C   0  0  0  0  0  0  0  0  0  0  0  0
  2  1  1  0  0  0  0
  3 10  1  0  0  0  0
  4  3  1  0  0  0  0
  5  1  1  0  0  0  0
  6  4  1  0  0  0  0
  7  1  2  0  0  0  0
  8  1  2  0  0  0  0
  9  6  1  0  0  0  0
 10 17  1  0  0  0  0
 11  2  1  0  0  0  0
 12  2  1  0  0  0  0
 13  3  2  0  0  0  0
 14  9  2  0  0  0  0
 15  6  2  0  0  0  0
 16 11  1  0  0  0  0
 17 12  1  0  0  0  0
 18 19  2  0  0  0  0
 19 15  1  0  0  0  0
 20 18  1  0  0  0  0
 21  5  1  0  0  0  0
 22  5  1  0  0  0  0
 23  9  1  0  0  0  0
 16 10  1  0  0  0  0
 18 14  1  0  0  0  0
M  END
>  <ID> (9116035)
9116035

>  <Supplier> (9116035)
ChemBridge

>  <clogP> (9116035)
9.450000000000005e-001

>  <RB> (9116035)
2

>  <tPSA> (9116035)
6.972000000000000e+001

>  <Hacc> (9116035)
5

>  <Hdon> (9116035)
1

>  <LogSw> (9116035)
-2.631000000000000e+000

>  <Group> (9116035)
2

>  <Core> (9116035)
050

$$$$
6167262
  -ISIS-  03310818232D

 22 23  0  0  0  0  0  0  0  0999 V2000
    0.9292    0.0000    0.0000 C   0  0  0  0  0  0  0  0  0  0  0  0
    0.0000    0.0000    0.0000 N   0  0  3  0  0  0  0  0  0  0  0  0
    1.8667   -0.3792    0.0000 C   0  0  3  0  0  0  0  0  0  0  0  0
   -0.1708    1.0208    0.0000 C   0  0  0  0  0  0  0  0  0  0  0  0
    1.1500    0.8125    0.0000 O   0  0  0  0  0  0  0  0  0  0  0  0
    2.1792   -1.2375    0.0000 C   0  0  0  0  0  0  0  0  0  0  0  0
   -0.9833   -0.3875    0.0000 C   0  0  3  0  0  0  0  0  0  0  0  0
   -0.9833    1.4958    0.0000 C   0  0  0  0  0  0  0  0  0  0  0  0
    2.4667    0.3458    0.0000 C   0  0  0  0  0  0  0  0  0  0  0  0
    3.0667   -1.4000    0.0000 C   0  0  0  0  0  0  0  0  0  0  0  0
    1.5792   -1.9542    0.0000 C   0  0  0  0  0  0  0  0  0  0  0  0
   -1.6500   -0.1375    0.0000 C   0  0  0  0  0  0  0  0  0  0  0  0
   -0.9833   -1.3167    0.0000 C   0  0  0  0  0  0  0  0  0  0  0  0
   -0.9833    2.4333    0.0000 C   0  0  0  0  0  0  0  0  0  0  0  0
   -1.7958    1.0208    0.0000 C   0  0  0  0  0  0  0  0  0  0  0  0
    3.3875    0.1625    0.0000 C   0  0  0  0  0  0  0  0  0  0  0  0
    3.4000   -2.3000    0.0000 C   0  0  0  0  0  0  0  0  0  0  0  0
    1.8875   -2.8667    0.0000 C   0  0  0  0  0  0  0  0  0  0  0  0
   -1.7958    2.9000    0.0000 C   0  0  0  0  0  0  0  0  0  0  0  0
   -2.6000    1.4958    0.0000 C   0  0  0  0  0  0  0  0  0  0  0  0
   -2.6000    2.4333    0.0000 C   0  0  0  0  0  0  0  0  0  0  0  0
    2.8167   -3.0375    0.0000 C   0  0  0  0  0  0  0  0  0  0  0  0
  2  1  1  0  0  0  0
  3  1  1  0  0  0  0
  4  2  1  0  0  0  0
  5  1  2  0  0  0  0
  6  3  1  0  0  0  0
  7  2  1  0  0  0  0
  8  4  1  0  0  0  0
  9  3  1  0  0  0  0
 10  6  1  0  0  0  0
 11  6  2  0  0  0  0
 12  7  1  0  0  0  0
 13  7  1  0  0  0  0
 14  8  2  0  0  0  0
 15  8  1  0  0  0  0
 16  9  1  0  0  0  0
 17 10  2  0  0  0  0
 18 11  1  0  0  0  0
 19 14  1  0  0  0  0
 20 15  2  0  0  0  0
 21 20  1  0  0  0  0
 22 18  2  0  0  0  0
 17 22  1  0  0  0  0
 19 21  2  0  0  0  0
M  END
>  <ID> (6167262)
6167262

>  <Supplier> (6167262)
ChemBridge

>  <clogP> (6167262)
4.210000000000000e+000

>  <RB> (6167262)
4

>  <tPSA> (6167262)
2.031000000000000e+001

>  <Hacc> (6167262)
1

>  <Hdon> (6167262)
0

>  <LogSw> (6167262)
-4.950000000000000e+000

>  <Group> (6167262)
2

$$$$
6143574
  -ISIS-  03310818232D

 23 24  0  0  0  0  0  0  0  0999 V2000
   -0.5000    1.3250    0.0000 N   0  0  0  0  0  0  0  0  0  0  0  0
   -0.0458    0.7750    0.0000 C   0  0  0  0  0  0  0  0  0  0  0  0
   -0.2333    1.9875    0.0000 C   0  0  0  0  0  0  0  0  0  0  0  0
   -1.1958   -0.6042    0.0000 C   0  0  0  0  0  0  0  0  0  0  0  0
   -0.4958   -0.4500    0.0000 N   0  0  0  0  0  0  0  0  0  0  0  0
   -1.3708   -1.2667    0.0000 C   0  0  0  0  0  0  0  0  0  0  0  0
    0.6417    0.8833    0.0000 S   0  0  0  0  0  0  0  0  0  0  0  0
    0.4667    2.1000    0.0000 C   0  0  0  0  0  0  0  0  0  0  0  0
   -1.6708   -0.1042    0.0000 C   0  0  0  0  0  0  0  0  0  0  0  0
   -0.6833    2.5500    0.0000 O   0  0  0  0  0  0  0  0  0  0  0  0
    0.9250    1.5500    0.0000 C   0  0  0  0  0  0  0  0  0  0  0  0
    0.7250    2.7708    0.0000 C   0  0  0  0  0  0  0  0  0  0  0  0
   -2.3333   -0.2875    0.0000 C   0  0  0  0  0  0  0  0  0  0  0  0
   -2.0333   -1.4500    0.0000 C   0  0  0  0  0  0  0  0  0  0  0  0
    1.8750    2.3333    0.0000 C   0  0  0  0  0  0  0  0  0  0  0  0
   -2.5125   -0.9667    0.0000 C   0  0  0  0  0  0  0  0  0  0  0  0
    1.4292    2.8833    0.0000 C   0  0  0  0  0  0  0  0  0  0  0  0
    1.6167    1.6583    0.0000 C   0  0  0  0  0  0  0  0  0  0  0  0
    2.5917    2.4458    0.0000 Cl  0  0  0  0  0  0  0  0  0  0  0  0
   -1.5125    0.5958    0.0000 O   0  0  0  0  0  0  0  0  0  0  0  0
   -2.2333   -2.1042    0.0000 O   0  0  0  0  0  0  0  0  0  0  0  0
   -0.8500    0.8125    0.0000 C   0  0  0  0  0  0  0  0  0  0  0  0
   -1.7500   -2.6042    0.0000 C   0  0  0  0  0  0  0  0  0  0  0  0
  2  1  1  0  0  0  0
  3  1  1  0  0  0  0
  4  5  1  0  0  0  0
  5  2  1  0  0  0  0
  6  4  1  0  0  0  0
  7  2  2  0  0  0  0
  8  3  1  0  0  0  0
  9  4  2  0  0  0  0
 10  3  2  0  0  0  0
 11  8  1  0  0  0  0
 12  8  2  0  0  0  0
 13  9  1  0  0  0  0
 14  6  2  0  0  0  0
 15 17  2  0  0  0  0
 16 13  2  0  0  0  0
 17 12  1  0  0  0  0
 18 11  2  0  0  0  0
 19 15  1  0  0  0  0
 20  9  1  0  0  0  0
 21 14  1  0  0  0  0
 22 20  1  0  0  0  0
 23 21  1  0  0  0  0
 15 18  1  0  0  0  0
 16 14  1  0  0  0  0
M  END
>  <ID> (6143574)
6143574

>  <Supplier> (6143574)
ChemBridge

>  <clogP> (6143574)
3.430000000000000e+000

>  <RB> (6143574)
2

>  <tPSA> (6143574)
5.959000000000000e+001

>  <Hacc> (6143574)
3

>  <Hdon> (6143574)
2

>  <LogSw> (6143574)
-4.686999999999999e+000

>  <Group> (6143574)
2

>  <Core> (6143574)
071

$$$$
5131713
  -ISIS-  03310818212D

 25 28  0  0  0  0  0  0  0  0999 V2000
   -2.2833    0.6000    0.0000 C   0  0  3  0  0  0  0  0  0  0  0  0
   -1.1333    0.7958    0.0000 C   0  0  3  0  0  0  0  0  0  0  0  0
   -1.8625    1.6625    0.0000 C   0  0  0  0  0  0  0  0  0  0  0  0
   -0.0333    0.3833    0.0000 C   0  0  0  0  0  0  0  0  0  0  0  0
    0.8542    1.1625    0.0000 N   0  0  0  0  0  0  0  0  0  0  0  0
   -3.2708    1.1625    0.0000 C   0  0  0  0  0  0  0  0  0  0  0  0
   -2.2833   -0.5667    0.0000 C   0  0  0  0  0  0  0  0  0  0  0  0
    0.1875   -0.7667    0.0000 O   0  0  0  0  0  0  0  0  0  0  0  0
    1.9542    0.7833    0.0000 C   0  0  0  0  0  0  0  0  0  0  0  0
    4.1500    0.0000    0.0000 C   0  0  0  0  0  0  0  0  0  0  0  0
    2.8375    1.5458    0.0000 C   0  0  0  0  0  0  0  0  0  0  0  0
    2.1667   -0.3542    0.0000 C   0  0  0  0  0  0  0  0  0  0  0  0
    3.9375    1.1458    0.0000 C   0  0  0  0  0  0  0  0  0  0  0  0
    3.2542   -0.7542    0.0000 C   0  0  0  0  0  0  0  0  0  0  0  0
   -4.2708    0.6000    0.0000 C   0  0  0  0  0  0  0  0  0  0  0  0
   -1.2625   -1.1542    0.0000 C   0  0  0  0  0  0  0  0  0  0  0  0
   -3.2708   -1.1542    0.0000 C   0  0  0  0  0  0  0  0  0  0  0  0
   -3.2708    2.3333    0.0000 C   0  0  0  0  0  0  0  0  0  0  0  0
    5.2375   -0.3792    0.0000 C   0  0  0  0  0  0  0  0  0  0  0  0
   -1.2625   -2.3042    0.0000 C   0  0  0  0  0  0  0  0  0  0  0  0
   -3.2708   -2.3042    0.0000 C   0  0  0  0  0  0  0  0  0  0  0  0
   -4.2708    2.8958    0.0000 C   0  0  0  0  0  0  0  0  0  0  0  0
   -5.2708    1.1625    0.0000 C   0  0  0  0  0  0  0  0  0  0  0  0
   -5.2708    2.3333    0.0000 C   0  0  0  0  0  0  0  0  0  0  0  0
   -2.2833   -2.8875    0.0000 C   0  0  0  0  0  0  0  0  0  0  0  0
  2  1  1  0  0  0  0
  3  1  1  0  0  0  0
  4  2  1  0  0  0  0
  5  4  1  0  0  0  0
  6  1  1  0  0  0  0
  7  1  1  0  0  0  0
  8  4  2  0  0  0  0
  9  5  1  0  0  0  0
 10 14  1  0  0  0  0
 11  9  2  0  0  0  0
 12  9  1  0  0  0  0
 13 11  1  0  0  0  0
 14 12  2  0  0  0  0
 15  6  1  0  0  0  0
 16  7  1  0  0  0  0
 17  7  2  0  0  0  0
 18  6  2  0  0  0  0
 19 10  1  0  0  0  0
 20 16  2  0  0  0  0
 21 17  1  0  0  0  0
 22 18  1  0  0  0  0
 23 15  2  0  0  0  0
 24 22  2  0  0  0  0
 25 21  2  0  0  0  0
  3  2  1  0  0  0  0
 20 25  1  0  0  0  0
 23 24  1  0  0  0  0
 13 10  2  0  0  0  0
M  END
>  <ID> (5131713)
5131713

>  <Supplier> (5131713)
ChemBridge

>  <clogP> (5131713)
5.130000000000000e+000

>  <RB> (5131713)
4

>  <tPSA> (5131713)
2.910000000000000e+001

>  <Hacc> (5131713)
1

>  <Hdon> (5131713)
1

>  <LogSw> (5131713)
-5.969000000000000e+000

>  <Group> (5131713)
2

>  <Core> (5131713)
487

$$$$
6432355
  -ISIS-  03310818242D

 32 35  0  0  0  0  0  0  0  0999 V2000
    0.1042    0.7500    0.0000 N   0  0  3  0  0  0  0  0  0  0  0  0
   -0.2708    0.0458    0.0000 C   0  0  0  0  0  0  0  0  0  0  0  0
   -0.4708    1.3333    0.0000 C   0  0  0  0  0  0  0  0  0  0  0  0
   -1.2000    0.9500    0.0000 C   0  0  0  0  0  0  0  0  0  0  0  0
   -1.0625    0.1500    0.0000 S   0  0  0  0  0  0  0  0  0  0  0  0
    4.7667   -0.8000    0.0000 C   0  0  0  0  0  0  0  0  0  0  0  0
   -1.9125    1.3958    0.0000 C   0  0  0  0  0  0  0  0  0  0  0  0
    3.9500   -0.8875    0.0000 C   0  0  0  0  0  0  0  0  0  0  0  0
    5.1000   -0.0667    0.0000 C   0  0  0  0  0  0  0  0  0  0  0  0
    3.4875   -0.2292    0.0000 N   0  0  0  0  0  0  0  0  0  0  0  0
    0.1042   -0.6875    0.0000 S   0  0  0  0  0  0  0  0  0  0  0  0
   -4.0458    1.0125    0.0000 C   0  0  0  0  0  0  0  0  0  0  0  0
    2.6875   -0.3167    0.0000 C   0  0  0  0  0  0  0  0  0  0  0  0
   -4.0458    0.1958    0.0000 C   0  0  0  0  0  0  0  0  0  0  0  0
   -4.8208    1.2625    0.0000 O   0  0  0  0  0  0  0  0  0  0  0  0
   -0.3333    2.1208    0.0000 O   0  0  0  0  0  0  0  0  0  0  0  0
   -2.6458    0.9958    0.0000 C   0  0  0  0  0  0  0  0  0  0  0  0
   -4.8208   -0.0500    0.0000 O   0  0  0  0  0  0  0  0  0  0  0  0
   -5.2708    0.5958    0.0000 C   0  0  0  0  0  0  0  0  0  0  0  0
   -3.3500    1.4125    0.0000 C   0  0  0  0  0  0  0  0  0  0  0  0
    4.6500    0.6000    0.0000 O   0  0  0  0  0  0  0  0  0  0  0  0
    2.3500   -1.0667    0.0000 O   0  0  0  0  0  0  0  0  0  0  0  0
    0.9042    0.8833    0.0000 C   0  0  0  0  0  0  0  0  0  0  0  0
   -3.3500   -0.2042    0.0000 C   0  0  0  0  0  0  0  0  0  0  0  0
    5.9000    0.0333    0.0000 O   0  0  0  0  0  0  0  0  0  0  0  0
   -2.6458    0.2208    0.0000 C   0  0  0  0  0  0  0  0  0  0  0  0
    5.2375   -1.4667    0.0000 C   0  0  0  0  0  0  0  0  0  0  0  0
    1.4167    0.2458    0.0000 C   0  0  0  0  0  0  0  0  0  0  0  0
    3.6167   -1.6500    0.0000 C   0  0  0  0  0  0  0  0  0  0  0  0
    2.2167    0.3333    0.0000 C   0  0  0  0  0  0  0  0  0  0  0  0
    4.9042   -2.1792    0.0000 C   0  0  0  0  0  0  0  0  0  0  0  0
    4.1042   -2.2875    0.0000 C   0  0  0  0  0  0  0  0  0  0  0  0
  2  1  1  0  0  0  0
  3  1  1  0  0  0  0
  4  3  1  0  0  0  0
  5  2  1  0  0  0  0
  6  8  1  0  0  0  0
  7  4  2  0  0  0  0
  8 10  1  0  0  0  0
  9  6  1  0  0  0  0
 10 13  1  0  0  0  0
 11  2  2  0  0  0  0
 12 20  1  0  0  0  0
 13 30  1  0  0  0  0
 14 24  1  0  0  0  0
 15 12  1  0  0  0  0
 16  3  2  0  0  0  0
 17  7  1  0  0  0  0
 18 14  1  0  0  0  0
 19 15  1  0  0  0  0
 20 17  2  0  0  0  0
 21  9  2  0  0  0  0
 22 13  2  0  0  0  0
 23  1  1  0  0  0  0
 24 26  2  0  0  0  0
 25  9  1  0  0  0  0
 26 17  1  0  0  0  0
 27  6  2  0  0  0  0
 28 23  1  0  0  0  0
 29  8  2  0  0  0  0
 30 28  1  0  0  0  0
 31 32  2  0  0  0  0
 32 29  1  0  0  0  0
  5  4  1  0  0  0  0
 12 14  2  0  0  0  0
 18 19  1  0  0  0  0
 27 31  1  0  0  0  0
M  END
>  <ID> (6432355)
6432355

>  <Supplier> (6432355)
ChemBridge

>  <clogP> (6432355)
3.710000000000000e+000

>  <RB> (6432355)
7

>  <tPSA> (6432355)
1.051700000000000e+002

>  <Hacc> (6432355)
6

>  <Hdon> (6432355)
2

>  <LogSw> (6432355)
-5.798000000000000e+000

>  <Group> (6432355)
3

>  <Core> (6432355)
001

$$$$
9116039
  -ISIS-  03310818292D

 20 22  0  0  0  0  0  0  0  0999 V2000
    2.0375    2.2833    0.0000 C   0  0  0  0  0  0  0  0  0  0  0  0
    1.3542    2.5875    0.0000 S   0  0  0  0  0  0  0  0  0  0  0  0
    1.9542    1.5375    0.0000 C   0  0  0  0  0  0  0  0  0  0  0  0
    1.2250    1.3833    0.0000 C   0  0  0  0  0  0  0  0  0  0  0  0
    0.8500    2.0333    0.0000 C   0  0  0  0  0  0  0  0  0  0  0  0
    2.6875    2.6583    0.0000 C   0  0  0  0  0  0  0  0  0  0  0  0
    3.3375    2.2833    0.0000 N   0  0  0  0  0  0  0  0  0  0  0  0
    0.1000    2.0333    0.0000 N   0  0  0  0  0  0  0  0  0  0  0  0
    2.6875    3.4083    0.0000 O   0  0  0  0  0  0  0  0  0  0  0  0
    3.9875    2.6583    0.0000 C   0  0  0  0  0  0  0  0  0  0  0  0
    2.5167    1.0333    0.0000 N   0  0  0  0  0  0  0  0  0  0  0  0
    4.6375    2.2833    0.0000 C   0  0  0  0  0  0  0  0  0  0  0  0
    5.2875    2.6583    0.0000 C   0  0  0  0  0  0  0  0  0  0  0  0
    0.8500    0.7333    0.0000 C   0  0  0  0  0  0  0  0  0  0  0  0
    5.9292    2.2833    0.0000 F   0  0  0  0  0  0  0  0  0  0  0  0
    4.6375    3.7833    0.0000 C   0  0  0  0  0  0  0  0  0  0  0  0
   -0.2750    1.3833    0.0000 C   0  0  0  0  0  0  0  0  0  0  0  0
    3.9875    3.4083    0.0000 C   0  0  0  0  0  0  0  0  0  0  0  0
    5.2875    3.4083    0.0000 C   0  0  0  0  0  0  0  0  0  0  0  0
    0.1000    0.7333    0.0000 C   0  0  0  0  0  0  0  0  0  0  0  0
  2  1  1  0  0  0  0
  3  1  2  0  0  0  0
  4  3  1  0  0  0  0
  5  2  1  0  0  0  0
  6  1  1  0  0  0  0
  7  6  1  0  0  0  0
  8  5  2  0  0  0  0
  9  6  2  0  0  0  0
 10  7  1  0  0  0  0
 11  3  1  0  0  0  0
 12 10  2  0  0  0  0
 13 12  1  0  0  0  0
 14  4  2  0  0  0  0
 15 13  1  0  0  0  0
 16 18  2  0  0  0  0
 17  8  1  0  0  0  0
 18 10  1  0  0  0  0
 19 16  1  0  0  0  0
 20 14  1  0  0  0  0
  5  4  1  0  0  0  0
 17 20  2  0  0  0  0
 19 13  2  0  0  0  0
M  END
>  <ID> (9116039)
9116039

>  <Supplier> (9116039)
ChemBridge

>  <clogP> (9116039)
3.244000000000000e+000

>  <RB> (9116039)
2

>  <tPSA> (9116039)
6.801000000000001e+001

>  <Hacc> (9116039)
2

>  <Hdon> (9116039)
2

>  <LogSw> (9116039)
-3.220000000000000e+000

>  <Group> (9116039)
2

>  <Core> (9116039)
274

$$$$
7322838
  -ISIS-  03310818262D

 31 34  0  0  0  0  0  0  0  0999 V2000
   -0.3375   -2.0625    0.0000 C   0  0  0  0  0  0  0  0  0  0  0  0
   -0.0250   -2.9667    0.0000 N   0  0  3  0  0  0  0  0  0  0  0  0
    0.2542   -2.0542    0.0000 C   0  0  0  0  0  0  0  0  0  0  0  0
    0.4417   -2.6042    0.0000 C   0  0  0  0  0  0  0  0  0  0  0  0
   -0.5083   -2.6250    0.0000 C   0  0  3  0  0  0  0  0  0  0  0  0
   -2.7375   -3.3792    0.0000 N   0  3  0  0  0  0  0  0  0  0  0  0
   -0.5375   -1.5667    0.0000 C   0  0  0  0  0  0  0  0  0  0  0  0
   -0.0125   -3.5625    0.0000 C   0  0  0  0  0  0  0  0  0  0  0  0
   -2.1833   -3.1917    0.0000 C   0  0  0  0  0  0  0  0  0  0  0  0
   -1.0708   -2.8167    0.0000 C   0  0  0  0  0  0  0  0  0  0  0  0
   -3.1750   -2.9917    0.0000 O   0  5  0  0  0  0  0  0  0  0  0  0
    1.0125   -2.7792    0.0000 O   0  0  0  0  0  0  0  0  0  0  0  0
   -0.4625   -1.0417    0.0000 C   0  0  0  0  0  0  0  0  0  0  0  0
   -2.8583   -3.9542    0.0000 O   0  0  0  0  0  0  0  0  0  0  0  0
   -1.0708   -1.6292    0.0000 O   0  0  0  0  0  0  0  0  0  0  0  0
    0.6000   -1.5667    0.0000 O   0  0  0  0  0  0  0  0  0  0  0  0
    0.5792   -4.4375    0.0000 O   0  0  0  0  0  0  0  0  0  0  0  0
   -1.7458   -3.5792    0.0000 C   0  0  0  0  0  0  0  0  0  0  0  0
   -2.0625   -2.6167    0.0000 C   0  0  0  0  0  0  0  0  0  0  0  0
   -1.1833   -3.3917    0.0000 C   0  0  0  0  0  0  0  0  0  0  0  0
   -1.5083   -2.4250    0.0000 C   0  0  0  0  0  0  0  0  0  0  0  0
    0.1250   -0.9750    0.0000 C   0  0  0  0  0  0  0  0  0  0  0  0
   -0.8208   -0.5667    0.0000 C   0  0  0  0  0  0  0  0  0  0  0  0
    0.5042   -3.8500    0.0000 C   0  0  3  0  0  0  0  0  0  0  0  0
    0.0042    0.0458    0.0000 C   0  0  0  0  0  0  0  0  0  0  0  0
    0.3542   -0.4292    0.0000 C   0  0  0  0  0  0  0  0  0  0  0  0
   -0.5833   -0.0292    0.0000 C   0  0  0  0  0  0  0  0  0  0  0  0
    0.2417    0.5875    0.0000 Cl  0  0  0  0  0  0  0  0  0  0  0  0
    1.1625   -4.5500    0.0000 C   0  0  0  0  0  0  0  0  0  0  0  0
    1.0417   -3.5917    0.0000 C   0  0  0  0  0  0  0  0  0  0  0  0
    1.4500   -4.0292    0.0000 C   0  0  0  0  0  0  0  0  0  0  0  0
  2  5  1  0  0  0  0
  3  1  2  0  0  0  0
  4  3  1  0  0  0  0
  5  1  1  0  0  0  0
  6  9  1  0  0  0  0
  7  1  1  0  0  0  0
  8  2  1  0  0  0  0
  9 19  2  0  0  0  0
 10  5  1  0  0  0  0
 11  6  1  0  0  0  0
 12  4  2  0  0  0  0
 13  7  1  0  0  0  0
 14  6  2  0  0  0  0
 15  7  2  0  0  0  0
 16  3  1  0  0  0  0
 17 24  1  0  0  0  0
 18 20  2  0  0  0  0
 19 21  1  0  0  0  0
 20 10  1  0  0  0  0
 21 10  2  0  0  0  0
 22 13  1  0  0  0  0
 23 13  2  0  0  0  0
 24  8  1  0  0  0  0
 25 27  2  0  0  0  0
 26 22  2  0  0  0  0
 27 23  1  0  0  0  0
 28 25  1  0  0  0  0
 29 17  1  0  0  0  0
 30 24  1  0  0  0  0
 31 30  1  0  0  0  0
  2  4  1  0  0  0  0
 25 26  1  0  0  0  0
 18  9  1  0  0  0  0
 29 31  1  0  0  0  0
M  CHG  2   6   1  11  -1
M  END
>  <ID> (7322838)
7322838

>  <Supplier> (7322838)
ChemBridge

>  <clogP> (7322838)
4.153000000000000e+000

>  <RB> (7322838)
5

>  <tPSA> (7322838)
1.099800000000000e+002

>  <Hacc> (7322838)
6

>  <Hdon> (7322838)
1

>  <LogSw> (7322838)
-6.364999999999998e+000

>  <Group> (7322838)
1

>  <Core> (7322838)
095

$$$$
9020823
  -ISIS-  03310818282D

 22 23  0  0  0  0  0  0  0  0999 V2000
    4.2417    2.1583    0.0000 N   0  0  3  0  0  0  0  0  0  0  0  0
    5.5417    2.1583    0.0000 C   0  0  0  0  0  0  0  0  0  0  0  0
    4.8917    1.7833    0.0000 C   0  0  3  0  0  0  0  0  0  0  0  0
    3.5917    1.7833    0.0000 C   0  0  0  0  0  0  0  0  0  0  0  0
    5.5417    2.9083    0.0000 C   0  0  0  0  0  0  0  0  0  0  0  0
    6.1917    1.7833    0.0000 C   0  0  0  0  0  0  0  0  0  0  0  0
    4.2417    2.9083    0.0000 C   0  0  0  0  0  0  0  0  0  0  0  0
    6.8417    2.1583    0.0000 C   0  0  0  0  0  0  0  0  0  0  0  0
    6.1917    3.2833    0.0000 C   0  0  0  0  0  0  0  0  0  0  0  0
    6.8417    2.9083    0.0000 C   0  0  0  0  0  0  0  0  0  0  0  0
    1.6500    2.1583    0.0000 C   0  0  0  0  0  0  0  0  0  0  0  0
    4.8917    3.2833    0.0000 C   0  0  0  0  0  0  0  0  0  0  0  0
    3.5917    1.0333    0.0000 O   0  0  0  0  0  0  0  0  0  0  0  0
    2.9500    2.1583    0.0000 C   0  0  0  0  0  0  0  0  0  0  0  0
    1.0000    1.7833    0.0000 O   0  0  0  0  0  0  0  0  0  0  0  0
    2.3000    1.7833    0.0000 C   0  0  0  0  0  0  0  0  0  0  0  0
    1.6500    2.9083    0.0000 O   0  0  0  0  0  0  0  0  0  0  0  0
    7.4917    1.7833    0.0000 O   0  0  0  0  0  0  0  0  0  0  0  0
    7.4917    3.2833    0.0000 O   0  0  0  0  0  0  0  0  0  0  0  0
    4.8917    1.0333    0.0000 C   0  0  0  0  0  0  0  0  0  0  0  0
    7.4917    4.0250    0.0000 C   0  0  0  0  0  0  0  0  0  0  0  0
    7.4917    1.0333    0.0000 C   0  0  0  0  0  0  0  0  0  0  0  0
  2  3  1  0  0  0  0
  3  1  1  0  0  0  0
  4  1  1  0  0  0  0
  5 12  1  0  0  0  0
  6  2  2  0  0  0  0
  7  1  1  0  0  0  0
  8  6  1  0  0  0  0
  9  5  2  0  0  0  0
 10  9  1  0  0  0  0
 11 16  1  0  0  0  0
 12  7  1  0  0  0  0
 13  4  2  0  0  0  0
 14  4  1  0  0  0  0
 15 11  2  0  0  0  0
 16 14  1  0  0  0  0
 17 11  1  0  0  0  0
 18  8  1  0  0  0  0
 19 10  1  0  0  0  0
 20  3  1  0  0  0  0
 21 19  1  0  0  0  0
 22 18  1  0  0  0  0
  5  2  1  0  0  0  0
 10  8  2  0  0  0  0
M  END
>  <ID> (9020823)
9020823

>  <Supplier> (9020823)
ChemBridge

>  <clogP> (9020823)
1.144000000000000e+000

>  <RB> (9020823)
3

>  <tPSA> (9020823)
7.606999999999998e+001

>  <Hacc> (9020823)
5

>  <Hdon> (9020823)
1

>  <LogSw> (9020823)
-2.418000000000000e+000

>  <Group> (9020823)
3

$$$$
7322834
  -ISIS-  03310818262D

 21 22  0  0  0  0  0  0  0  0999 V2000
    3.2667   -4.9417    0.0000 C   0  0  0  0  0  0  0  0  0  0  0  0
    2.5542   -4.5250    0.0000 C   0  0  0  0  0  0  0  0  0  0  0  0
    3.9792   -4.5292    0.0000 C   0  0  0  0  0  0  0  0  0  0  0  0
    2.5542   -3.6917    0.0000 N   0  0  0  0  0  0  0  0  0  0  0  0
    1.8375   -3.2792    0.0000 C   0  0  0  0  0  0  0  0  0  0  0  0
    3.2667   -5.7792    0.0000 C   0  0  0  0  0  0  0  0  0  0  0  0
    3.9875   -3.7042    0.0000 O   0  0  0  0  0  0  0  0  0  0  0  0
    1.8417   -4.9417    0.0000 C   0  0  0  0  0  0  0  0  0  0  0  0
    1.1292   -3.6917    0.0000 O   0  0  0  0  0  0  0  0  0  0  0  0
    2.5542   -6.1917    0.0000 C   0  0  0  0  0  0  0  0  0  0  0  0
    4.6917   -4.9500    0.0000 O   0  0  0  0  0  0  0  0  0  0  0  0
    1.8292   -2.4542    0.0000 C   0  0  0  0  0  0  0  0  0  0  0  0
    1.8417   -5.7792    0.0000 C   0  0  0  0  0  0  0  0  0  0  0  0
    1.1167   -2.0417    0.0000 C   0  0  0  0  0  0  0  0  0  0  0  0
    2.5542   -7.0167    0.0000 O   0  0  0  0  0  0  0  0  0  0  0  0
    1.1125   -1.2167    0.0000 C   0  0  3  0  0  0  0  0  0  0  0  0
    1.8250   -0.8042    0.0000 C   0  0  0  0  0  0  0  0  0  0  0  0
    0.3917   -0.8125    0.0000 C   0  0  0  0  0  0  0  0  0  0  0  0
    0.3917    0.0208    0.0000 C   0  0  0  0  0  0  0  0  0  0  0  0
    1.8250    0.0208    0.0000 C   0  0  0  0  0  0  0  0  0  0  0  0
    1.1042    0.4333    0.0000 C   0  0  0  0  0  0  0  0  0  0  0  0
  2  1  2  0  0  0  0
  3  1  1  0  0  0  0
  4  2  1  0  0  0  0
  5  4  1  0  0  0  0
  6  1  1  0  0  0  0
  7  3  2  0  0  0  0
  8  2  1  0  0  0  0
  9  5  2  0  0  0  0
 10  6  2  0  0  0  0
 11  3  1  0  0  0  0
 12  5  1  0  0  0  0
 13 10  1  0  0  0  0
 14 12  1  0  0  0  0
 15 10  1  0  0  0  0
 16 14  1  0  0  0  0
 17 16  1  0  0  0  0
 18 16  1  0  0  0  0
 19 18  1  0  0  0  0
 20 17  1  0  0  0  0
 21 19  1  0  0  0  0
  8 13  2  0  0  0  0
 20 21  1  0  0  0  0
M  END
>  <ID> (7322834)
7322834

>  <Supplier> (7322834)
ChemBridge

>  <clogP> (7322834)
4.474000000000000e+000

>  <RB> (7322834)
5

>  <tPSA> (7322834)
8.663000000000000e+001

>  <Hacc> (7322834)
4

>  <Hdon> (7322834)
3

>  <LogSw> (7322834)
-5.146000000000000e+000

>  <Group> (7322834)
3

>  <Core> (7322834)
144

$$$$
5962142
  -ISIS-  03310818232D

 24 25  0  0  0  0  0  0  0  0999 V2000
   -1.0500   -1.0042    0.0000 C   0  0  0  0  0  0  0  0  0  0  0  0
   -1.0500   -0.0792    0.0000 C   0  0  0  0  0  0  0  0  0  0  0  0
   -0.2458   -1.4792    0.0000 C   0  0  0  0  0  0  0  0  0  0  0  0
    0.5667   -1.0042    0.0000 N   0  0  0  0  0  0  0  0  0  0  0  0
    1.3792   -1.4667    0.0000 C   0  0  0  0  0  0  0  0  0  0  0  0
   -1.8625   -1.4792    0.0000 C   0  0  0  0  0  0  0  0  0  0  0  0
   -0.2458    0.3833    0.0000 O   0  0  0  0  0  0  0  0  0  0  0  0
   -1.8625    0.3958    0.0000 C   0  0  0  0  0  0  0  0  0  0  0  0
    1.3875   -2.4000    0.0000 O   0  0  0  0  0  0  0  0  0  0  0  0
   -0.2458   -2.4167    0.0000 C   0  0  0  0  0  0  0  0  0  0  0  0
    2.1792   -1.0000    0.0000 C   0  0  0  0  0  0  0  0  0  0  0  0
   -1.8625   -2.4167    0.0000 C   0  0  0  0  0  0  0  0  0  0  0  0
    2.1792   -0.0667    0.0000 N   0  0  3  0  0  0  0  0  0  0  0  0
   -1.0500   -2.8875    0.0000 C   0  0  0  0  0  0  0  0  0  0  0  0
   -2.6708   -2.8875    0.0000 Cl  0  0  0  0  0  0  0  0  0  0  0  0
   -1.8625    1.3333    0.0000 C   0  0  0  0  0  0  0  0  0  0  0  0
   -2.6708   -0.0792    0.0000 C   0  0  0  0  0  0  0  0  0  0  0  0
    2.9875    0.4000    0.0000 C   0  0  0  0  0  0  0  0  0  0  0  0
    1.3667    0.4000    0.0000 C   0  0  0  0  0  0  0  0  0  0  0  0
    1.3667    1.3458    0.0000 C   0  0  0  0  0  0  0  0  0  0  0  0
    2.9875    1.3458    0.0000 C   0  0  0  0  0  0  0  0  0  0  0  0
   -3.4833    0.3958    0.0000 C   0  0  0  0  0  0  0  0  0  0  0  0
   -2.6708    1.8000    0.0000 C   0  0  0  0  0  0  0  0  0  0  0  0
   -3.4833    1.3333    0.0000 C   0  0  0  0  0  0  0  0  0  0  0  0
  2  1  1  0  0  0  0
  3  1  1  0  0  0  0
  4  3  1  0  0  0  0
  5  4  1  0  0  0  0
  6  1  2  0  0  0  0
  7  2  2  0  0  0  0
  8  2  1  0  0  0  0
  9  5  2  0  0  0  0
 10  3  2  0  0  0  0
 11  5  1  0  0  0  0
 12  6  1  0  0  0  0
 13 11  1  0  0  0  0
 14 12  2  0  0  0  0
 15 12  1  0  0  0  0
 16  8  2  0  0  0  0
 17  8  1  0  0  0  0
 18 13  1  0  0  0  0
 19 13  1  0  0  0  0
 20 19  1  0  0  0  0
 21 18  1  0  0  0  0
 22 17  2  0  0  0  0
 23 16  1  0  0  0  0
 24 22  1  0  0  0  0
 14 10  1  0  0  0  0
 23 24  2  0  0  0  0
M  END
>  <ID> (5962142)
5962142

>  <Supplier> (5962142)
ChemBridge

>  <clogP> (5962142)
5.000000000000000e+000

>  <RB> (5962142)
4

>  <tPSA> (5962142)
4.941000000000002e+001

>  <Hacc> (5962142)
3

>  <Hdon> (5962142)
1

>  <LogSw> (5962142)
-5.984000000000000e+000

>  <Group> (5962142)
3

$$$$
6799985
  -ISIS-  03310818242D

 30 33  0  0  0  0  0  0  0  0999 V2000
    4.2500   -1.3625    0.0000 N   0  0  3  0  0  0  0  0  0  0  0  0
    3.5917   -1.8417    0.0000 C   0  0  0  0  0  0  0  0  0  0  0  0
    4.9042   -1.8417    0.0000 C   0  0  0  0  0  0  0  0  0  0  0  0
    3.8500   -2.6292    0.0000 C   0  0  0  0  0  0  0  0  0  0  0  0
    4.6542   -2.6167    0.0000 C   0  0  0  0  0  0  0  0  0  0  0  0
    3.4667   -3.3417    0.0000 C   0  0  0  0  0  0  0  0  0  0  0  0
    2.6167   -3.3500    0.0000 N   0  0  0  0  0  0  0  0  0  0  0  0
    1.7917   -3.3417    0.0000 C   0  0  0  0  0  0  0  0  0  0  0  0
    4.2500   -0.5375    0.0000 C   0  0  0  0  0  0  0  0  0  0  0  0
    2.8042   -1.5875    0.0000 O   0  0  0  0  0  0  0  0  0  0  0  0
    5.6917   -1.5917    0.0000 O   0  0  0  0  0  0  0  0  0  0  0  0
    1.3792   -4.0792    0.0000 O   0  0  0  0  0  0  0  0  0  0  0  0
    1.7542   -1.8792    0.0000 O   0  0  0  0  0  0  0  0  0  0  0  0
    1.3542   -2.6125    0.0000 C   0  0  0  0  0  0  0  0  0  0  0  0
    5.0667   -3.3167    0.0000 C   0  0  0  0  0  0  0  0  0  0  0  0
    1.3250   -1.1417    0.0000 C   0  0  0  0  0  0  0  0  0  0  0  0
    0.4875    0.3083    0.0000 C   0  0  0  0  0  0  0  0  0  0  0  0
    3.8667   -4.0417    0.0000 C   0  0  0  0  0  0  0  0  0  0  0  0
    0.4792   -1.1625    0.0000 C   0  0  0  0  0  0  0  0  0  0  0  0
    1.7417   -0.4125    0.0000 C   0  0  0  0  0  0  0  0  0  0  0  0
    1.3125    0.3208    0.0000 C   0  0  0  0  0  0  0  0  0  0  0  0
    0.0417   -0.4292    0.0000 C   0  0  0  0  0  0  0  0  0  0  0  0
    0.0750    1.0208    0.0000 O   0  0  0  0  0  0  0  0  0  0  0  0
    4.6667   -4.0292    0.0000 C   0  0  0  0  0  0  0  0  0  0  0  0
    4.9667   -0.1292    0.0000 C   0  0  0  0  0  0  0  0  0  0  0  0
    3.5375   -0.1292    0.0000 C   0  0  0  0  0  0  0  0  0  0  0  0
    0.4875    1.7375    0.0000 C   0  0  0  0  0  0  0  0  0  0  0  0
    4.9667    0.6958    0.0000 C   0  0  0  0  0  0  0  0  0  0  0  0
    3.5375    0.6958    0.0000 C   0  0  0  0  0  0  0  0  0  0  0  0
    4.2542    1.1125    0.0000 C   0  0  0  0  0  0  0  0  0  0  0  0
  2  1  1  0  0  0  0
  3  1  1  0  0  0  0
  4  2  1  0  0  0  0
  5  3  1  0  0  0  0
  6  4  1  0  0  0  0
  7  6  1  0  0  0  0
  8  7  1  0  0  0  0
  9  1  1  0  0  0  0
 10  2  2  0  0  0  0
 11  3  2  0  0  0  0
 12  8  2  0  0  0  0
 13 14  1  0  0  0  0
 14  8  1  0  0  0  0
 15  5  1  0  0  0  0
 16 13  1  0  0  0  0
 17 21  2  0  0  0  0
 18  6  2  0  0  0  0
 19 16  1  0  0  0  0
 20 16  2  0  0  0  0
 21 20  1  0  0  0  0
 22 19  2  0  0  0  0
 23 17  1  0  0  0  0
 24 15  2  0  0  0  0
 25  9  2  0  0  0  0
 26  9  1  0  0  0  0
 27 23  1  0  0  0  0
 28 25  1  0  0  0  0
 29 26  2  0  0  0  0
 30 29  1  0  0  0  0
  5  4  2  0  0  0  0
 30 28  2  0  0  0  0
 24 18  1  0  0  0  0
 17 22  1  0  0  0  0
M  END
>  <ID> (6799985)
6799985

>  <Supplier> (6799985)
ChemBridge

>  <clogP> (6799985)
3.480000000000000e+000

>  <RB> (6799985)
5

>  <tPSA> (6799985)
8.494000000000000e+001

>  <Hacc> (6799985)
5

>  <Hdon> (6799985)
1

>  <LogSw> (6799985)
-5.105000000000000e+000

>  <Group> (6799985)
3

>  <Core> (6799985)
315

$$$$
7589656
  -ISIS-  03310818262D

 25 28  0  0  0  0  0  0  0  0999 V2000
    0.0625   -2.5292    0.0000 N   0  0  3  0  0  0  0  0  0  0  0  0
   -1.2375   -2.5292    0.0000 C   0  0  0  0  0  0  0  0  0  0  0  0
    0.0625   -3.2792    0.0000 C   0  0  0  0  0  0  0  0  0  0  0  0
   -1.2333   -3.2792    0.0000 C   0  0  0  0  0  0  0  0  0  0  0  0
   -0.5833   -3.6542    0.0000 C   0  0  0  0  0  0  0  0  0  0  0  0
    0.7750   -2.1167    0.0000 C   0  0  0  0  0  0  0  0  0  0  0  0
    1.4917   -2.5292    0.0000 C   0  0  0  0  0  0  0  0  0  0  0  0
    2.9167   -2.5250    0.0000 C   0  0  0  0  0  0  0  0  0  0  0  0
    2.2042   -2.1167    0.0000 N   0  0  0  0  0  0  0  0  0  0  0  0
   -1.8250   -1.9500    0.0000 O   0  0  0  0  0  0  0  0  0  0  0  0
    3.6292   -2.1125    0.0000 C   0  0  0  0  0  0  0  0  0  0  0  0
    2.9167   -3.3500    0.0000 C   0  0  0  0  0  0  0  0  0  0  0  0
    4.3417   -2.5292    0.0000 C   0  0  0  0  0  0  0  0  0  0  0  0
    3.6250   -3.7625    0.0000 C   0  0  0  0  0  0  0  0  0  0  0  0
    4.3417   -3.3542    0.0000 C   0  0  0  0  0  0  0  0  0  0  0  0
    1.4917   -3.3542    0.0000 O   0  0  0  0  0  0  0  0  0  0  0  0
   -0.5833   -4.4000    0.0000 C   0  0  0  0  0  0  0  0  0  0  0  0
    0.7125   -3.6417    0.0000 C   0  0  0  0  0  0  0  0  0  0  0  0
   -1.8833   -3.6542    0.0000 C   0  0  0  0  0  0  0  0  0  0  0  0
    5.0542   -2.1167    0.0000 Cl  0  0  0  0  0  0  0  0  0  0  0  0
    3.6250   -4.5875    0.0000 Cl  0  0  0  0  0  0  0  0  0  0  0  0
    0.7167   -4.3917    0.0000 C   0  0  0  0  0  0  0  0  0  0  0  0
   -1.8833   -4.4042    0.0000 C   0  0  0  0  0  0  0  0  0  0  0  0
    0.0667   -4.7750    0.0000 C   0  0  0  0  0  0  0  0  0  0  0  0
   -1.2250   -4.7792    0.0000 C   0  0  0  0  0  0  0  0  0  0  0  0
  2  1  1  0  0  0  0
  3  1  1  0  0  0  0
  4  2  1  0  0  0  0
  5  3  2  0  0  0  0
  6  1  1  0  0  0  0
  7  6  1  0  0  0  0
  8  9  1  0  0  0  0
  9  7  1  0  0  0  0
 10  2  2  0  0  0  0
 11  8  1  0  0  0  0
 12  8  2  0  0  0  0
 13 11  2  0  0  0  0
 14 12  1  0  0  0  0
 15 14  2  0  0  0  0
 16  7  2  0  0  0  0
 17  5  1  0  0  0  0
 18  3  1  0  0  0  0
 19  4  2  0  0  0  0
 20 13  1  0  0  0  0
 21 14  1  0  0  0  0
 22 18  2  0  0  0  0
 23 19  1  0  0  0  0
 24 22  1  0  0  0  0
 25 17  1  0  0  0  0
  5  4  1  0  0  0  0
 17 24  2  0  0  0  0
 23 25  2  0  0  0  0
 13 15  1  0  0  0  0
M  END
>  <ID> (7589656)
7589656

>  <Supplier> (7589656)
ChemBridge

>  <clogP> (7589656)
4.512000000000000e+000

>  <RB> (7589656)
3

>  <tPSA> (7589656)
4.941000000000002e+001

>  <Hacc> (7589656)
2

>  <Hdon> (7589656)
1

>  <LogSw> (7589656)
-6.001000000000000e+000

>  <Group> (7589656)
1

$$$$
9012488
  -ISIS-  03310818282D

 21 22  0  0  0  0  0  0  0  0999 V2000
    1.6542    2.9958    0.0000 C   0  0  0  0  0  0  0  0  0  0  0  0
    0.9375    2.7833    0.0000 N   0  3  0  0  0  0  0  0  0  0  0  0
    2.2500    2.5333    0.0000 O   0  0  0  0  0  0  0  0  0  0  0  0
    2.8667    2.9458    0.0000 C   0  0  0  0  0  0  0  0  0  0  0  0
    3.5792    2.6958    0.0000 C   0  0  0  0  0  0  0  0  0  0  0  0
    4.1500    3.1750    0.0000 N   0  0  0  0  0  0  0  0  0  0  0  0
    1.9167    3.6958    0.0000 C   0  0  0  0  0  0  0  0  0  0  0  0
    2.6667    3.6708    0.0000 C   0  0  0  0  0  0  0  0  0  0  0  0
    4.8000    2.8000    0.0000 C   0  0  0  0  0  0  0  0  0  0  0  0
    5.4500    3.1750    0.0000 C   0  0  0  0  0  0  0  0  0  0  0  0
    0.4000    3.3083    0.0000 O   0  5  0  0  0  0  0  0  0  0  0  0
    0.7542    2.0583    0.0000 O   0  0  0  0  0  0  0  0  0  0  0  0
    3.7042    1.9583    0.0000 O   0  0  0  0  0  0  0  0  0  0  0  0
    5.4500    3.9250    0.0000 C   0  0  3  0  0  0  0  0  0  0  0  0
    4.8000    2.0500    0.0000 C   0  0  0  0  0  0  0  0  0  0  0  0
    6.1000    2.7958    0.0000 C   0  0  0  0  0  0  0  0  0  0  0  0
    6.1000    4.2917    0.0000 C   0  0  0  0  0  0  0  0  0  0  0  0
    4.9917    4.1792    0.0000 C   0  0  0  0  0  0  0  0  0  0  0  0
    5.4500    1.6750    0.0000 C   0  0  0  0  0  0  0  0  0  0  0  0
    6.1000    5.0417    0.0000 C   0  0  0  0  0  0  0  0  0  0  0  0
    6.1000    2.0458    0.0000 C   0  0  0  0  0  0  0  0  0  0  0  0
  2  1  1  0  0  0  0
  3  1  1  0  0  0  0
  4  3  1  0  0  0  0
  5  4  1  0  0  0  0
  6  5  1  0  0  0  0
  7  1  2  0  0  0  0
  8  7  1  0  0  0  0
  9  6  1  0  0  0  0
 10  9  1  0  0  0  0
 11  2  1  0  0  0  0
 12  2  2  0  0  0  0
 13  5  2  0  0  0  0
 14 10  1  0  0  0  0
 15  9  2  0  0  0  0
 16 10  2  0  0  0  0
 17 14  1  0  0  0  0
 18 14  1  0  0  0  0
 19 15  1  0  0  0  0
 20 17  1  0  0  0  0
 21 19  2  0  0  0  0
  8  4  2  0  0  0  0
 21 16  1  0  0  0  0
M  CHG  2   2   1  11  -1
M  END
>  <ID> (9012488)
9012488

>  <Supplier> (9012488)
ChemBridge

>  <clogP> (9012488)
3.057000000000000e+000

>  <RB> (9012488)
3

>  <tPSA> (9012488)
8.538000000000000e+001

>  <Hacc> (9012488)
4

>  <Hdon> (9012488)
1

>  <LogSw> (9012488)
-4.303999999999999e+000

>  <Group> (9012488)
1

$$$$
9073531
  -ISIS-  03310818292D

 22 23  0  0  0  0  0  0  0  0999 V2000
    3.7917    2.7583    0.0000 N   0  0  0  0  0  0  0  0  0  0  0  0
    3.3542    2.1500    0.0000 C   0  0  0  0  0  0  0  0  0  0  0  0
    4.5042    2.5250    0.0000 C   0  0  0  0  0  0  0  0  0  0  0  0
    3.7917    1.5458    0.0000 N   0  0  0  0  0  0  0  0  0  0  0  0
    6.4042    3.1083    0.0000 C   0  0  0  0  0  0  0  0  0  0  0  0
    4.5042    1.7750    0.0000 O   0  0  0  0  0  0  0  0  0  0  0  0
    5.8000    2.6625    0.0000 N   0  0  3  0  0  0  0  0  0  0  0  0
    5.1125    2.9708    0.0000 C   0  0  0  0  0  0  0  0  0  0  0  0
    2.6042    2.1500    0.0000 C   0  0  0  0  0  0  0  0  0  0  0  0
    6.3292    3.8583    0.0000 O   0  0  0  0  0  0  0  0  0  0  0  0
    7.0917    2.8000    0.0000 N   0  0  0  0  0  0  0  0  0  0  0  0
    2.2292    2.8000    0.0000 C   0  0  0  0  0  0  0  0  0  0  0  0
    2.2292    1.5000    0.0000 C   0  0  0  0  0  0  0  0  0  0  0  0
    5.2667    1.4750    0.0000 C   0  0  0  0  0  0  0  0  0  0  0  0
    5.3500    0.7333    0.0000 C   0  0  0  0  0  0  0  0  0  0  0  0
    1.1042    2.1500    0.0000 C   0  0  0  0  0  0  0  0  0  0  0  0
    1.4792    2.8000    0.0000 C   0  0  0  0  0  0  0  0  0  0  0  0
    1.4792    1.5000    0.0000 C   0  0  0  0  0  0  0  0  0  0  0  0
    5.8792    1.9208    0.0000 C   0  0  0  0  0  0  0  0  0  0  0  0
    0.3542    2.1500    0.0000 Cl  0  0  0  0  0  0  0  0  0  0  0  0
    7.6917    3.2375    0.0000 C   0  0  0  0  0  0  0  0  0  0  0  0
    8.3792    2.9333    0.0000 C   0  0  0  0  0  0  0  0  0  0  0  0
  2  1  1  0  0  0  0
  3  1  2  0  0  0  0
  4  2  2  0  0  0  0
  5  7  1  0  0  0  0
  6  3  1  0  0  0  0
  7  8  1  0  0  0  0
  8  3  1  0  0  0  0
  9  2  1  0  0  0  0
 10  5  2  0  0  0  0
 11  5  1  0  0  0  0
 12  9  2  0  0  0  0
 13  9  1  0  0  0  0
 14 19  1  0  0  0  0
 15 14  2  0  0  0  0
 16 18  1  0  0  0  0
 17 12  1  0  0  0  0
 18 13  2  0  0  0  0
 19  7  1  0  0  0  0
 20 16  1  0  0  0  0
 21 11  1  0  0  0  0
 22 21  1  0  0  0  0
  4  6  1  0  0  0  0
 17 16  2  0  0  0  0
M  END
>  <ID> (9073531)
9073531

>  <Supplier> (9073531)
ChemBridge

>  <clogP> (9073531)
2.426000000000000e+000

>  <RB> (9073531)
5

>  <tPSA> (9073531)
7.126000000000001e+001

>  <Hacc> (9073531)
4

>  <Hdon> (9073531)
1

>  <LogSw> (9073531)
-3.611000000000000e+000

>  <Group> (9073531)
2

>  <Core> (9073531)
204

$$$$
7676344
  -ISIS-  03310818262D

 22 24  0  0  0  0  0  0  0  0999 V2000
    1.5500   -0.0167    0.0000 C   0  0  0  0  0  0  0  0  0  0  0  0
    2.2167    0.9000    0.0000 S   0  0  0  0  0  0  0  0  0  0  0  0
    2.1917   -0.9167    0.0000 C   0  0  0  0  0  0  0  0  0  0  0  0
    0.4167   -0.0167    0.0000 C   0  0  0  0  0  0  0  0  0  0  0  0
    3.2667   -0.5792    0.0000 C   0  0  0  0  0  0  0  0  0  0  0  0
    3.2792    0.5333    0.0000 C   0  0  0  0  0  0  0  0  0  0  0  0
   -0.1500    0.9500    0.0000 O   0  0  0  0  0  0  0  0  0  0  0  0
   -0.1333   -1.0000    0.0000 O   0  0  0  0  0  0  0  0  0  0  0  0
   -4.6625    1.0000    0.0000 C   0  0  0  0  0  0  0  0  0  0  0  0
   -3.5458    0.9833    0.0000 C   0  0  0  0  0  0  0  0  0  0  0  0
    1.8292   -2.0000    0.0000 Cl  0  0  0  0  0  0  0  0  0  0  0  0
   -5.2333    2.0000    0.0000 O   0  0  0  0  0  0  0  0  0  0  0  0
   -2.9708    1.9333    0.0000 C   0  0  0  0  0  0  0  0  0  0  0  0
   -3.0000    0.0125    0.0000 C   0  0  0  0  0  0  0  0  0  0  0  0
   -1.2833    0.9500    0.0000 C   0  0  0  0  0  0  0  0  0  0  0  0
   -1.8500    0.0000    0.0000 C   0  0  0  0  0  0  0  0  0  0  0  0
   -1.8458    1.9458    0.0000 C   0  0  0  0  0  0  0  0  0  0  0  0
    4.2500   -1.1542    0.0000 C   0  0  0  0  0  0  0  0  0  0  0  0
    4.2667    1.0958    0.0000 C   0  0  0  0  0  0  0  0  0  0  0  0
   -5.2500    0.0500    0.0000 C   0  0  0  0  0  0  0  0  0  0  0  0
    5.2292   -0.5875    0.0000 C   0  0  0  0  0  0  0  0  0  0  0  0
    5.2500    0.5125    0.0000 C   0  0  0  0  0  0  0  0  0  0  0  0
  2  1  1  0  0  0  0
  3  1  2  0  0  0  0
  4  1  1  0  0  0  0
  5  3  1  0  0  0  0
  6  2  1  0  0  0  0
  7  4  1  0  0  0  0
  8  4  2  0  0  0  0
  9 10  1  0  0  0  0
 10 13  2  0  0  0  0
 11  3  1  0  0  0  0
 12  9  2  0  0  0  0
 13 17  1  0  0  0  0
 14 16  2  0  0  0  0
 15  7  1  0  0  0  0
 16 15  1  0  0  0  0
 17 15  2  0  0  0  0
 18  5  1  0  0  0  0
 19  6  1  0  0  0  0
 20  9  1  0  0  0  0
 21 18  2  0  0  0  0
 22 19  2  0  0  0  0
  6  5  2  0  0  0  0
 22 21  1  0  0  0  0
 14 10  1  0  0  0  0
M  END
>  <ID> (7676344)
7676344

>  <Supplier> (7676344)
ChemBridge

>  <clogP> (7676344)
4.722000000000000e+000

>  <RB> (7676344)
4

>  <tPSA> (7676344)
4.337000000000000e+001

>  <Hacc> (7676344)
3

>  <Hdon> (7676344)
0

>  <LogSw> (7676344)
-5.341000000000000e+000

>  <Group> (7676344)
1

>  <Core> (7676344)
351

$$$$
